48
frame 8 | Written by MDAnalysis XYZWriter (release 2.4.3)
       H    18.92300    4.00734    5.79598
       O    18.42168    3.16967    5.77670
      H1    17.56380    3.53791    6.09812
       H    18.82413    6.55133    6.18431
       O    19.58593    5.99977    6.28658
      H1    20.27240    6.42703    5.77552
       H    17.38097    7.14601    9.72515
       O    16.42158    7.17221    9.81689
      H1    16.17033    6.74479   10.65732
       H    19.40747    5.97085   10.47343
       O    19.30057    5.80996   11.44865
      H1    19.61115    4.90075   11.55345
       H    15.72116    3.00416    7.33997
       O    15.77760    3.63256    6.57751
      H1    15.88909    4.50353    7.00201
       H    19.13624    8.29112    8.93615
       O    19.29321    7.36460    8.77618
      H1    19.14400    7.16797    7.84475
       H    15.02644   10.17022    9.79986
       O    15.41149    9.67954   10.55224
      H1    15.89747    8.96200   10.19057
       H    17.06199    3.48342   13.31629
       O    16.95650    3.99968   14.10757
      H1    16.42402    3.42417   14.69409
       H    19.10339    2.35099    9.05721
       O    19.81148    2.38360    8.40727
      H1    19.24767    2.38364    7.60855
       H    16.24907    6.84613    6.59812
       O    16.89760    7.22355    5.93534
      H1    17.01458    6.58018    5.20661
       H    16.88791    3.18934   10.86902
       O    17.13702    2.77830   11.71801
      H1    17.05164    1.82262   11.61186
       H    13.99158    5.95096   12.80180
       O    14.50798    5.71918   11.95764
      H1    14.54531    4.77155   12.13620
       H    18.27950   10.96040   10.92501
       O    17.48118   11.39384   11.13741
      H1    16.79601   10.71598   10.98691
       H    16.45594    5.56660   14.64157
       O    16.41039    6.44676   15.07586
      H1    16.31432    7.15058   14.41261
       H    14.34222    5.97396    7.93144
       O    15.27432    6.05446    7.69676
      H1    15.67620    6.44839    8.48680
       H    15.53672    8.53728   13.14093
       O    16.50374    8.48901   13.26588
      H1    16.69452    9.41715   13.31781

