48
frame 7 | Written by MDAnalysis XYZWriter (release 2.4.3)
       H    14.27728   19.59472   19.23905
       O    14.87592   19.03183   19.76043
      H1    15.64365   19.60241   19.79761
       H    11.95992   18.94191   15.31099
       O    12.43116   18.29821   14.76375
      H1    13.22270   17.97404   15.21627
       H    10.32689   14.01182   17.34789
       O    10.03457   14.82182   17.84363
      H1    10.10912   14.60207   18.75151
       H    16.95870   19.47149   12.92694
       O    17.28562   18.97700   13.67902
      H1    17.94945   19.46418   14.20854
       H    12.79166   14.05068   17.05980
       O    13.31418   14.49614   17.76187
      H1    13.72544   13.79888   18.27744
       H    14.35894   17.18277   19.78586
       O    14.05370   16.24099   19.91088
      H1    13.51464   15.88320   19.24218
       H    18.84294   18.99838   18.64318
       O    18.96582   18.05497   18.41883
      H1    18.24309   17.72359   17.91012
       H    15.78867   14.03432   17.83008
       O    16.11271   14.89268   18.26462
      H1    15.31946   15.42559   18.44360
       H    12.58034   18.70021   17.99508
       O    12.24065   17.95512   18.43709
      H1    11.28714   17.87440   18.19154
       H    16.89546   17.97250   15.33183
       O    16.90694   18.08183   16.30090
      H1    16.03523   17.70979   16.60110
       H    18.46688   15.41345   16.28848
       O    18.48047   15.22328   17.21793
      H1    17.60626   15.22856   17.65070
       H    15.38439   15.16601   13.32697
       O    14.86719   14.91922   14.13119
      H1    14.39400   14.12838   13.75971
       H    18.81738   13.79710   17.95278
       O    19.01265   12.95150   18.49953
      H1    19.15720   13.20048   19.40899
       H    10.01959   16.48062   17.62816
       O     9.73550   17.39075   17.57306
      H1     8.83764   17.33279   17.37821
       H    14.40465   16.21422   16.03912
       O    14.40200   17.09770   16.47730
      H1    13.83608   17.06277   17.26664
       H    10.38476   15.93205   13.64952
       O    11.23357   15.64931   14.06834
      H1    11.51416   16.44796   14.61020

