48
frame 7 | Written by MDAnalysis XYZWriter (release 2.4.3)
       H   -13.22249   19.21636  -17.76464
       O   -12.47193   18.90499  -18.26025
      H1   -11.79632   19.54218  -18.00127
       H   -16.21539   18.42217  -18.88669
       O   -15.60405   17.91357  -18.34900
      H1   -16.15068   17.27080  -17.82004
       H   -11.57368   15.88131  -13.78428
       O   -11.63086   14.95642  -13.58047
      H1   -10.95411   14.32283  -13.94928
       H    -7.25774   18.71429  -19.51664
       O    -7.33846   19.47144  -18.92692
      H1    -7.44190   20.28165  -19.50492
       H   -16.37504   19.89563  -16.35476
       O   -16.19188   19.04967  -15.87570
      H1   -15.79494   18.59183  -16.62614
       H    -5.84375   16.95057  -16.93080
       O    -6.66641   17.29411  -16.56314
      H1    -7.17043   17.55017  -17.31661
       H   -12.00176   17.37484  -17.55609
       O   -11.65709   16.48922  -17.23587
      H1   -12.25583   15.77813  -17.54174
       H   -12.43401   13.50388  -17.30971
       O   -13.24539   13.90526  -17.70142
      H1   -13.19856   13.60463  -18.62656
       H   -15.34974   18.69667  -12.51822
       O   -16.08503   18.06579  -12.40135
      H1   -16.88199   18.57556  -12.65630
       H   -18.94674   17.37611  -16.01243
       O   -18.50237   17.84803  -15.33836
      H1   -17.67586   18.20421  -15.68001
       H   -11.45194   17.22039  -15.47141
       O   -11.59277   17.80467  -14.70779
      H1   -12.55498   17.87401  -14.58099
       H   -10.09330   18.39763  -14.82101
       O    -9.19922   18.70303  -15.11787
      H1    -9.12909   19.58592  -14.73365
       H   -10.82063   20.14621  -12.53964
       O   -11.38109   19.76990  -11.85583
      H1   -11.12266   18.85997  -11.63664
       H   -14.53716   16.49443  -15.09691
       O   -14.17146   17.29681  -14.73698
      H1   -14.98084   17.57051  -14.28077
       H    -9.83168   19.30120  -16.54713
       O    -9.89899   19.65096  -17.46462
      H1    -9.02051   19.40086  -17.80554
       H   -16.22621   15.14659  -17.29153
       O   -16.59923   15.93377  -16.88167
      H1   -16.71431   15.73186  -15.95428

