48
frame 8 | Written by MDAnalysis XYZWriter (release 2.4.3)
       H     2.88936   10.09796   -2.53630
       O     2.82088    9.62915   -3.37753
      H1     3.38529    8.86305   -3.36461
       H     4.37649    6.69143   -4.25641
       O     4.62114    7.31946   -4.97114
      H1     3.97228    7.20356   -5.66303
       H     1.39221    7.72430   -0.21672
       O     2.16266    7.31774    0.25790
      H1     2.39576    7.86854    1.01576
       H     6.74530    2.88769    0.59127
       O     6.48148    3.56289   -0.06305
      H1     5.49738    3.72910   -0.00487
       H     6.08823    6.25356   -3.00542
       O     5.72217    5.38941   -3.06892
      H1     5.13602    5.30724   -2.27184
       H     2.80384    2.85017   -2.96843
       O     2.92325    1.96451   -2.56611
      H1     2.87505    2.21861   -1.65768
       H     3.49324    7.56932   -1.12293
       O     3.67674    7.44323   -2.05187
      H1     3.37758    6.54556   -2.28005
       H     6.30371    8.06838    1.01598
       O     5.50870    7.59292    0.67013
      H1     4.78306    7.82141    1.30814
       H     8.20546    7.94180   -1.62796
       O     8.67328    7.71848   -0.80469
      H1     8.22211    6.99307   -0.32663
       H     7.18341    2.06231   -2.83967
       O     7.19085    1.72982   -1.93143
      H1     6.96397    2.52415   -1.34021
       H     2.46461    4.51024   -4.16976
       O     2.72634    4.86800   -3.33013
      H1     1.89861    4.90379   -2.76636
       H     3.66312    5.13707    0.34538
       O     4.31475    5.16578   -0.35748
      H1     4.73684    6.01951   -0.16549
       H     6.32322    8.64842   -2.59799
       O     6.86350    7.95011   -3.05605
      H1     6.98596    8.15547   -3.99674
       H     8.10907    3.39563   -5.00702
       O     7.24036    2.87975   -4.91700
      H1     6.65697    3.52538   -4.52542
       H     7.89112    5.14241    0.58696
       O     8.13538    5.97780    1.01804
      H1     9.07860    5.89853    1.28075
       H     9.68722    6.13789   -3.42671
       O     9.40272    6.92973   -3.88367
      H1     8.59653    7.19922   -3.45027

