48
frame 7 | Written by MDAnalysis XYZWriter (release 2.4.3)
       H    11.18066  -19.47455  -17.14221
       O    10.62207  -19.32582  -16.30249
      H1    10.40322  -18.36885  -16.30928
       H    15.85767  -13.50759  -15.72154
       O    15.37430  -14.11811  -15.15390
      H1    16.06699  -14.76768  -14.96235
       H    12.66900  -17.39605  -15.06912
       O    13.11158  -17.75074  -15.81358
      H1    13.46867  -18.64363  -15.63737
       H    17.07940  -17.34082  -13.84761
       O    16.93112  -16.41140  -14.04320
      H1    17.26200  -15.80769  -13.38667
       H    13.90875  -13.07133  -11.29496
       O    14.64047  -13.51253  -10.82684
      H1    14.80387  -14.24089  -11.40842
       H    10.68322  -13.22112  -16.56614
       O    11.46656  -13.33563  -15.97896
      H1    11.88505  -14.16909  -16.23246
       H    13.04808  -18.78473  -11.02735
       O    13.44972  -18.35691  -11.81329
      H1    12.86220  -18.58722  -12.57163
       H     9.16765  -15.12680  -10.95042
       O     8.54279  -14.50874  -10.57571
      H1     8.10157  -14.96052   -9.85989
       H    12.52194  -12.82408  -14.07137
       O    13.08841  -13.10724  -13.33375
      H1    13.90217  -13.37668  -13.73114
       H    14.98505  -15.95153  -10.16154
       O    14.60804  -16.14595   -9.30671
      H1    15.19718  -16.66645   -8.76767
       H    11.20828  -16.13056  -16.38346
       O    10.31082  -16.48476  -16.25646
      H1     9.91554  -16.63700  -17.18863
       H    11.74346  -16.18775  -13.09873
       O    12.45740  -15.88720  -13.66482
      H1    12.42796  -14.94701  -13.44371
       H    15.58682  -16.15279  -12.74246
       O    15.16951  -16.06889  -11.89381
      H1    14.51889  -16.80479  -11.85654
       H    14.13271  -14.75228  -16.49167
       O    13.36402  -15.25135  -16.85479
      H1    13.50827  -16.17555  -16.62955
       H     8.66388  -15.73546  -15.53356
       O     7.90991  -15.61982  -14.91835
      H1     7.86748  -16.33658  -14.28474
       H    10.65307  -16.81174  -10.81376
       O    10.29529  -16.33828  -11.58332
      H1     9.65069  -16.94395  -11.94031

