48
frame 7 | Written by MDAnalysis XYZWriter (release 2.4.3)
       H   -13.92664   13.67641    3.06268
       O   -14.46457   14.24994    3.57160
      H1   -14.14838   15.14715    3.39200
       H   -16.33064   13.84885    2.58087
       O   -17.00826   13.76563    1.89477
      H1   -16.53240   14.11516    1.18278
       H   -12.77398   17.99192   -0.58395
       O   -13.12718   18.65447    0.00824
      H1   -12.76738   19.45103   -0.44386
       H   -20.01765   17.30557   -3.32795
       O   -19.29373   16.64287   -3.31599
      H1   -18.93322   16.72857   -2.42604
       H   -18.25559   14.93929    2.50090
       O   -18.82778   15.59496    2.87846
      H1   -19.49884   15.18503    3.47679
       H   -13.01937   15.47161   -2.23979
       O   -13.79292   14.99427   -2.62643
      H1   -14.46090   15.72124   -2.62434
       H   -12.60318   18.64327    3.95022
       O   -13.12705   19.13078    4.59261
      H1   -13.73551   18.37238    4.81590
       H   -18.81458   18.34614    1.96354
       O   -18.13821   18.57400    2.58702
      H1   -18.54702   19.33060    3.11039
       H   -12.40294   18.18529    1.56290
       O   -11.79114   18.24536    2.33393
      H1   -11.42394   17.38648    2.50914
       H   -15.16484   17.74010   -3.76840
       O   -15.62534   17.26102   -3.05893
      H1   -16.48094   17.00070   -3.37003
       H   -16.27510   16.69449    5.17010
       O   -17.17340   16.98926    5.00651
      H1   -17.28957   16.94713    4.03004
       H   -14.57899   15.68456   -0.26893
       O   -15.37977   15.79477    0.29858
      H1   -16.10916   16.03431   -0.30207
       H   -16.36902   18.48317    0.85575
       O   -16.08546   18.97156    0.09182
      H1   -15.16747   18.78190   -0.01904
       H   -16.03882   17.95463    2.60670
       O   -15.29024   17.36625    2.72697
      H1   -15.37428   16.62624    2.12870
       H   -17.87111   14.52153   -1.49711
       O   -17.17848   13.88213   -1.77241
      H1   -17.62762   13.37748   -2.45105
       H   -17.42119   17.72413   -0.61337
       O   -17.92167   16.92982   -0.75079
      H1   -18.65743   16.99557   -0.12421

