48
frame 8 | Written by MDAnalysis XYZWriter (release 2.4.3)
       H     7.06832  -18.07951   14.74392
       O     7.11775  -17.28857   14.25076
      H1     6.25923  -16.89163   14.41970
       H     7.19187  -17.92552   17.42146
       O     8.07840  -17.95403   17.00540
      H1     8.18236  -17.11551   16.49258
       H     8.66037  -13.44637   13.08006
       O     9.07250  -14.28459   13.37389
      H1     8.65038  -14.56485   14.21766
       H    13.61962  -18.72712   10.73505
       O    13.72153  -19.22101   11.57219
      H1    13.51849  -20.12511   11.42648
       H    16.04277  -18.82739   16.38256
       O    15.20625  -18.82039   15.93546
      H1    15.11938  -19.73871   15.57094
       H     8.71555  -15.94237   18.38895
       O     9.24506  -15.45874   19.00535
      H1     9.67675  -14.71865   18.57389
       H    12.10880  -14.33009   14.20043
       O    11.37054  -13.73760   14.48240
      H1    10.53880  -14.04851   14.11407
       H    10.02987  -16.10800   13.51391
       O    10.60583  -16.82057   13.54803
      H1    10.33000  -17.57140   13.02148
       H     9.03821  -19.18316   10.80948
       O     8.21473  -19.38990   11.24339
      H1     8.44114  -19.95867   11.97057
       H     7.41731  -15.69821   15.49794
       O     8.14960  -15.38733   16.04117
      H1     7.77028  -14.62957   16.50931
       H    13.96465  -15.64600   13.87830
       O    13.43813  -15.05492   13.30340
      H1    13.99459  -14.18589   13.06346
       H    14.04676  -15.34277   19.56597
       O    13.78662  -15.47453   18.65337
      H1    14.63102  -15.34443   18.22338
       H     9.86738  -18.19031   16.50507
       O    10.73993  -18.44074   16.16498
      H1    10.87022  -17.92915   15.33541
       H    15.66622  -15.95050   15.85612
       O    15.29866  -16.28733   15.05183
      H1    15.08158  -17.20494   15.20909
       H    13.97666  -18.64544   17.39687
       O    13.39015  -18.45272   18.18992
      H1    12.90073  -17.66753   17.87187
       H    11.11328  -20.09672   13.57449
       O    11.08158  -19.54438   12.79356
      H1    12.02106  -19.20684   12.65337

