48
frame 8 | Written by MDAnalysis XYZWriter (release 2.4.3)
       H   -15.83539   -6.13481    9.72007
       O   -16.05806   -6.96555    9.22368
      H1   -16.84753   -6.63484    8.75157
       H   -12.85373   -7.80574    8.73918
       O   -13.62364   -8.38686    8.81746
      H1   -14.28362   -7.85888    9.21865
       H    -9.07792   -9.94292   10.29085
       O    -8.38677   -9.99224    9.61203
      H1    -8.36304  -10.89192    9.32056
       H   -11.60999  -10.20654   11.04868
       O   -10.69035  -10.32770   11.17642
      H1   -10.55033  -11.25534   11.41517
       H   -15.79845   -4.21659   11.17702
       O   -15.27671   -4.29106   10.36493
      H1   -14.37485   -3.99739   10.45083
       H   -12.16529   -9.88299   14.02997
       O   -11.73592  -10.71430   13.71253
      H1   -11.54458  -10.47676   12.81767
       H   -12.11478   -7.74346   10.82650
       O   -12.64142   -7.88746   11.61094
      H1   -12.85379   -7.06390   12.01386
       H   -14.13382  -11.06656   10.75560
       O   -13.29694  -10.88023   10.30259
      H1   -13.41906   -9.99178    9.94159
       H    -9.18541   -5.35497   12.20978
       O    -9.95379   -5.84476   12.46696
      H1   -10.48814   -5.14086   12.87985
       H   -10.76616   -6.58857    6.64151
       O   -11.70798   -6.31592    6.74715
      H1   -12.24639   -7.00662    6.45198
       H   -11.90615   -3.98907   13.25331
       O   -11.21685   -3.44072   13.66057
      H1   -10.79980   -3.01082   12.89983
       H   -11.53789   -6.14272    8.52166
       O   -11.39187   -6.59305    9.40475
      H1   -11.10519   -5.88312    9.95367
       H   -10.04440   -7.56502   12.85410
       O    -9.79751   -8.43905   13.21971
      H1   -10.00726   -9.10455   12.58766
       H   -13.08335   -6.06901   14.23476
       O   -13.07240   -5.56881   13.44750
      H1   -14.05445   -5.37447   13.40538
       H   -12.20591   -2.52830    9.92587
       O   -12.66543   -3.31925    9.64741
      H1   -12.55010   -3.40302    8.69014
       H   -14.46972   -9.87125   13.05619
       O   -14.46728   -8.90873   13.24588
      H1   -13.86618   -8.57988   12.53919

