48
frame 8 | Written by MDAnalysis XYZWriter (release 2.4.3)
       H    18.05569  -11.89668    3.41423
       O    17.44176  -11.70442    4.11613
      H1    17.10070  -10.82601    3.90693
       H    19.08675  -12.79714    8.13589
       O    18.35255  -13.33141    8.39448
      H1    18.75251  -14.06323    8.88159
       H    15.49019  -13.70594    5.35857
       O    15.83348  -13.72660    4.47558
      H1    16.50826  -13.01570    4.36024
       H    17.82097  -11.80300   11.00972
       O    17.40796  -11.59276   10.21285
      H1    17.82641  -12.21876    9.61544
       H    19.30997  -15.27233    5.27703
       O    19.58668  -15.16766    6.19957
      H1    19.16726  -15.88548    6.67613
       H    15.77372  -11.55789    9.28723
       O    15.02919  -11.55424    8.66255
      H1    14.41705  -12.15467    9.06445
       H    17.33692   -8.29552    3.00331
       O    16.64615   -8.98187    3.12634
      H1    16.37109   -8.61224    3.98273
       H    14.22130   -8.15479    7.78636
       O    14.15631   -9.04965    7.41561
      H1    14.03491   -9.73436    8.09025
       H    19.59880  -11.66025    5.98903
       O    18.91580  -11.08666    6.34720
      H1    18.13260  -11.28878    5.79985
       H    15.07181  -13.02693    7.36811
       O    14.77781  -13.85632    6.97455
      H1    15.04152  -14.59258    7.60055
       H    17.47703  -16.56478    4.94588
       O    16.84430  -16.16726    4.23737
      H1    16.59822  -15.27360    4.57131
       H    19.25814   -7.78200    2.12559
       O    18.80732   -7.29600    2.83178
      H1    18.67301   -6.35004    2.67129
       H    19.34320   -8.98602    7.08709
       O    18.81412   -8.15561    7.08922
      H1    19.19811   -7.66117    6.41632
       H    15.76643   -8.67111    6.24426
       O    16.13001   -8.07361    5.59812
      H1    17.07109   -8.16109    5.83093
       H    17.06699   -9.72239   10.45788
       O    16.68014   -8.90203   10.76883
      H1    16.34560   -8.43327    9.99470
       H    18.77850   -7.71142    8.91577
       O    19.05332   -7.48230    9.78108
      H1    18.34613   -7.73901   10.40300

