48
frame 8 | Written by MDAnalysis XYZWriter (release 2.4.3)
       H   -16.96525    4.66876   18.09581
       O   -15.98488    4.72797   17.88418
      H1   -15.84956    5.69081   17.90643
       H   -13.63869    3.84255   14.84212
       O   -13.23804    4.29106   14.10234
      H1   -12.36316    4.68610   14.43843
       H   -18.66361    6.05046   15.38281
       O   -17.79029    5.66659   15.60954
      H1   -17.41861    5.00752   14.99849
       H   -16.01053    4.14989   12.12300
       O   -15.95426    4.50057   13.02660
      H1   -15.63882    5.37931   13.04736
       H   -16.31306    6.81829   15.96063
       O   -15.39938    7.18430   16.02385
      H1   -14.94572    7.03633   15.18552
       H   -15.99670    9.79900   17.85282
       O   -16.53420    9.15217   17.46538
      H1   -16.00186    8.63881   16.83575
       H   -17.98451    8.09963   18.05588
       O   -18.83098    7.59613   18.10880
      H1   -19.38882    7.99503   18.81540
       H   -14.09347    2.09486   19.38582
       O   -14.06928    1.21416   18.96691
      H1   -13.78058    0.66976   19.73456
       H   -13.98987    6.76945   17.03173
       O   -13.43069    7.12187   17.76583
      H1   -12.76929    6.42616   17.86684
       H   -16.89439    0.48600   18.82947
       O   -17.31669    0.37937   19.73287
      H1   -17.88225   -0.44585   19.66938
       H   -14.94529    4.13261   19.24701
       O   -14.08430    3.76337   19.68182
      H1   -13.42238    4.27523   19.16802
       H   -19.14299    2.75888   17.83934
       O   -19.60001    1.91321   18.01318
      H1   -18.89318    1.44381   18.51014
       H   -15.79168    4.03322   16.29251
       O   -15.64586    3.31153   15.63176
      H1   -15.60623    3.64213   14.64984
       H   -11.89813    3.87254   17.42434
       O   -12.08642    4.69078   18.00211
      H1   -11.33882    4.80448   18.62919
       H   -15.92816    1.84735   16.56519
       O   -16.10656    1.19320   17.27478
      H1   -15.24915    1.25794   17.82274
       H   -18.69189    5.49067   18.32035
       O   -18.60341    4.57084   17.96455
      H1   -18.38894    4.94070   17.05534

