48
frame 9 | Written by MDAnalysis XYZWriter (release 2.4.3)
       H    -0.74004  -17.18577    3.09380
       O     0.19679  -17.22912    3.23583
      H1     0.61608  -16.47814    2.85087
       H     7.21849  -14.16430    5.38769
       O     6.97207  -14.90087    4.80051
      H1     7.74555  -14.98533    4.21830
       H     0.78602  -14.88307    1.61669
       O     1.51726  -14.95894    2.29569
      H1     2.35351  -15.15717    1.78462
       H     2.60975  -11.80163    3.58136
       O     2.99086  -11.06865    3.01817
      H1     2.23670  -10.64543    2.63554
       H     5.07543  -18.19708    3.17583
       O     5.13836  -18.91353    2.49488
      H1     4.70295  -18.60028    1.71364
       H     3.71204  -16.56454    0.09723
       O     3.78345  -15.62904    0.37634
      H1     4.08195  -15.27172   -0.47449
       H     4.09092  -17.51031    7.04679
       O     4.76854  -17.16962    7.65177
      H1     4.84196  -17.92194    8.24382
       H     2.56566  -18.45951    0.51967
       O     3.51560  -18.26002    0.42441
      H1     3.81655  -18.61147   -0.45172
       H     3.21192  -17.63362    5.15450
       O     2.81405  -18.18554    5.84811
      H1     1.98315  -17.79143    6.04985
       H     3.26926  -13.98780   -1.55146
       O     4.05385  -13.79696   -2.04972
      H1     4.63627  -13.25280   -1.45968
       H     5.33027  -15.72712    3.69642
       O     4.66821  -16.41555    3.43656
      H1     4.25492  -16.12066    2.60700
       H     2.98681  -12.61324    5.57417
       O     2.35296  -12.76632    4.90286
      H1     2.52750  -13.65682    4.52671
       H     0.79219  -18.28308    2.14007
       O     0.95406  -18.81986    1.29018
      H1     1.33440  -19.67952    1.54705
       H    -0.04545  -16.46215    6.46479
       O    -0.04754  -17.27964    5.91710
      H1     0.08114  -17.04984    4.94329
       H     6.58857  -19.75087    5.13816
       O     6.72409  -18.96598    5.70017
      H1     7.71302  -18.74307    5.65351
       H     7.01313  -15.60900    6.20374
       O     7.10104  -15.93197    7.12145
      H1     6.34627  -16.48973    7.25222

