48
frame 8 | Written by MDAnalysis XYZWriter (release 2.4.3)
       H     4.71136   15.73980  -11.10628
       O     3.80953   15.82011  -10.91166
      H1     3.34681   15.65471  -11.72756
       H     9.23234   13.25102  -12.56734
       O     8.95810   13.83685  -13.35478
      H1     8.47013   13.22098  -13.94123
       H     6.62543   16.28568  -12.30811
       O     6.25569   16.65152  -13.12721
      H1     6.74523   17.48783  -13.26613
       H     8.79145   18.79202  -13.77633
       O     8.47873   18.34513  -12.99787
      H1     9.08841   18.67660  -12.28800
       H     9.77325   11.98664  -10.63394
       O    10.24999   12.38500  -11.41086
      H1    10.13680   11.82443  -12.21223
       H     9.20689   16.88568  -13.71290
       O     9.91488   16.31306  -14.15313
      H1     9.78930   15.35033  -13.92223
       H     9.50172   16.54408   -8.72433
       O     9.20512   17.11226   -9.45530
      H1    10.03935   17.54510   -9.65286
       H     8.29120   16.02265  -10.87028
       O     7.69790   15.43194  -11.30155
      H1     8.24615   15.07798  -12.03229
       H     5.69078   14.20019  -13.15165
       O     5.43931   13.32866  -12.79525
      H1     5.46349   13.33396  -11.83610
       H     5.11847   16.12617   -8.08361
       O     5.22092   15.19705   -8.12648
      H1     6.12287   14.99060   -7.82819
       H     6.66466   19.18481  -12.13228
       O     5.90181   19.72725  -11.93704
      H1     5.27691   19.47508  -12.62650
       H     6.35752   18.03474   -7.76873
       O     7.31732   18.09165   -7.55799
      H1     7.82274   17.89170   -8.37321
       H    11.41211   15.31308   -9.04932
       O    10.93461   15.07810   -8.26718
      H1    11.66870   15.11037   -7.66422
       H     6.78273   14.24830  -10.63780
       O     6.19354   13.60198  -10.10313
      H1     5.91724   14.17316   -9.37637
       H     7.55830   16.20815   -6.90730
       O     7.95607   15.35764   -6.87280
      H1     7.86429   15.05381   -5.98342
       H    11.30299   13.86005  -11.15658
       O    11.86722   14.59301  -10.86347
      H1    11.94290   15.14849  -11.68587

