48
frame 0 | Written by MDAnalysis XYZWriter (release 2.4.3)
       H    13.29402   19.06971   -6.71097
       O    13.77119   18.66585   -5.98863
      H1    13.05800   18.17798   -5.53270
       H    14.94584   19.19237   -3.09321
       O    14.13297   19.65646   -3.32682
      H1    13.82409   19.37838   -4.20151
       H    11.19417   16.01915   -7.41648
       O    12.14830   16.05493   -7.41414
      H1    12.34828   15.17180   -7.05895
       H     9.49376   16.93504   -8.45804
       O     9.35377   16.14260   -7.91640
      H1     9.47918   15.32871   -8.45705
       H     7.09706   17.30181   -3.31655
       O     7.82904   17.85364   -2.91090
      H1     8.47295   17.82703   -3.59897
       H    12.46797   18.50199   -0.86887
       O    12.30008   18.56744   -1.78923
      H1    13.10940   18.96895   -2.21668
       H     8.87367   16.76207   -1.06693
       O     9.80176   16.77760   -0.74350
      H1     9.71784   16.61563    0.24232
       H     8.38616   19.49872   -8.34448
       O     9.27633   19.05506   -8.50927
      H1     9.41675   19.06178   -9.46587
       H     8.72415   13.02929   -5.01371
       O     9.60964   12.85765   -5.41731
      H1    10.20466   13.22994   -4.73961
       H    11.32038   15.25403   -4.03363
       O    11.51635   14.41466   -3.59746
      H1    11.17122   14.57185   -2.67353
       H    10.81475   13.61577   -0.01070
       O    10.26950   13.92220   -0.80796
      H1    10.37621   14.89153   -0.79024
       H     9.17919   16.69067   -5.81922
       O     9.19583   17.56127   -5.40659
      H1     9.45499   18.15305   -6.08012
       H    16.10107   16.68979   -4.95340
       O    15.73175   16.75073   -4.11358
      H1    15.15754   15.94261   -4.13011
       H    12.07580   17.55857   -3.48175
       O    11.79075   17.41828   -4.38135
      H1    10.81413   17.54821   -4.42159
       H    13.91032   14.19280   -3.23283
       O    14.67686   14.01635   -3.71715
      H1    15.31476   13.66263   -3.09849
       H    12.47404   12.69205   -5.88597
       O    12.77313   13.57370   -6.07852
      H1    12.65021   14.03727   -5.21307

