48
frame 9 | Written by MDAnalysis XYZWriter (release 2.4.3)
       H    12.95788   17.59637   15.88668
       O    13.13437   17.34494   14.95972
      H1    13.86980   16.71790   14.94540
       H    12.52400   12.84418   18.01589
       O    12.99729   13.37897   18.71435
      H1    13.58888   12.66888   19.12411
       H     6.65147   14.72641   14.64778
       O     7.47287   15.11257   15.04359
      H1     8.04355   14.33595   15.10072
       H    13.80836    9.55079   12.96882
       O    12.88601    9.35766   13.24961
      H1    12.36405    9.82796   12.60024
       H    11.30254   13.73566   16.21418
       O    11.44483   12.82291   16.47530
      H1    12.03306   12.53502   15.76931
       H    14.33795   14.97211   18.13402
       O    14.88451   15.68932   18.44214
      H1    14.17256   16.38924   18.63823
       H     9.66446   12.58272   15.36075
       O     8.84243   12.71004   14.96231
      H1     8.14665   12.07983   15.27931
       H    14.37613   11.93659   14.72681
       O    13.42213   11.89427   14.56046
      H1    13.14759   10.98388   14.54932
       H     9.31261   13.58528   18.53305
       O     8.83557   12.90630   18.01278
      H1     9.45376   12.71062   17.26768
       H     9.25983   12.63378   13.07654
       O     9.28587   12.27569   12.17475
      H1     9.84474   11.54638   12.09677
       H    10.58167   14.87642   10.64269
       O    11.06512   14.10658   10.95906
      H1    10.44312   13.60069   11.46806
       H    14.55551   14.80813   14.05907
       O    14.72042   14.87560   15.01213
      H1    15.69181   14.87499   15.07435
       H    17.12371   11.41101   15.11501
       O    16.40087   11.65333   15.69729
      H1    16.63656   12.52651   16.01843
       H    12.59882   13.21853   11.61863
       O    13.46420   12.84086   11.88865
      H1    13.41564   12.59545   12.82987
       H     9.98270   15.95973   15.53905
       O    10.75869   15.46650   15.70444
      H1    11.46870   16.11724   15.43859
       H     9.96636    8.81270   15.37872
       O     9.59814    9.60900   15.83953
      H1     9.56926    9.37694   16.76338

