48
frame 9 | Written by MDAnalysis XYZWriter (release 2.4.3)
       H    -6.48891  -16.30484   10.14286
       O    -5.65399  -16.13474    9.62630
      H1    -5.21497  -16.99208    9.59339
       H    -0.74004  -17.18577    3.09380
       O     0.19679  -17.22912    3.23583
      H1     0.61608  -16.47814    2.85087
       H    -6.29973  -15.27444    6.35949
       O    -5.76642  -15.78455    5.65858
      H1    -6.31727  -16.25634    5.08999
       H    -2.05973  -16.29428    8.97292
       O    -2.33261  -15.39562    8.65689
      H1    -2.46840  -15.44534    7.71345
       H    -1.47106  -18.02958   10.08358
       O    -2.17011  -17.61467   10.65794
      H1    -2.18556  -18.28555   11.28618
       H    -7.38405  -17.98569    3.51371
       O    -6.56784  -17.44124    3.46484
      H1    -6.58852  -16.91299    2.67924
       H    -2.48091  -17.71566    4.40265
       O    -2.36663  -18.19530    5.18825
      H1    -1.52075  -17.78222    5.56288
       H    -5.60815  -19.99138    6.54890
       O    -6.53638  -20.12654    6.83609
      H1    -6.81140  -19.31311    7.22788
       H    -4.31334  -18.89704    8.51990
       O    -4.42324  -18.62491    9.47676
      H1    -3.51785  -18.33344    9.66002
       H    -4.09350  -12.78630    7.36391
       O    -3.98859  -13.45847    6.66532
      H1    -4.78383  -14.04031    6.75369
       H    -8.23974  -17.46715    7.17338
       O    -7.60181  -17.59942    7.90094
      H1    -6.97981  -16.84921    8.03790
       H    -2.39936  -16.11158    1.95829
       O    -2.62767  -16.46851    2.84182
      H1    -2.88058  -15.67714    3.37238
       H    -3.91266  -17.97671    2.20608
       O    -4.38851  -18.75076    2.45527
      H1    -5.12836  -18.48425    2.99916
       H    -0.38271  -18.29191    7.68228
       O    -0.78312  -18.61994    8.53188
      H1    -1.13940  -19.52899    8.29885
       H    -0.04545  -16.46215    6.46479
       O    -0.04754  -17.27964    5.91710
      H1     0.08114  -17.04984    4.94329
       H    -3.27486  -19.05713    6.46518
       O    -3.78349  -19.64793    6.99674
      H1    -3.09574  -20.15278    7.46079

