48
frame 8 | Written by MDAnalysis XYZWriter (release 2.4.3)
       H     8.17651  -12.08781    6.24679
       O     8.68570  -12.83964    6.64027
      H1     8.19765  -13.15562    7.39398
       H    12.22684  -15.38515   11.74960
       O    11.97075  -15.16718   10.85744
      H1    11.20486  -15.73825   10.62147
       H    15.77372  -11.55789    9.28723
       O    15.02919  -11.55424    8.66255
      H1    14.41705  -12.15467    9.06445
       H    11.78563  -10.95421   10.46968
       O    11.73929  -10.39805   11.25716
      H1    12.63104  -10.08589   11.56189
       H     9.79478  -16.53052    9.01749
       O     9.84359  -16.72552    9.99476
      H1     9.10192  -16.22653   10.33416
       H    15.07181  -13.02693    7.36811
       O    14.77781  -13.85632    6.97455
      H1    15.04152  -14.59258    7.60055
       H    13.96465  -15.64600   13.87830
       O    13.43813  -15.05492   13.30340
      H1    13.99459  -14.18589   13.06346
       H    11.97393  -14.39266    8.89834
       O    11.82200  -14.12139    8.01095
      H1    12.69787  -14.03592    7.61201
       H    12.95500  -16.61192   10.06374
       O    13.58850  -17.17999    9.62631
      H1    13.15906  -17.87970    9.04953
       H    13.10095  -14.01020   10.56381
       O    13.78529  -13.29581   10.41125
      H1    14.00451  -12.93544   11.25489
       H    15.85332  -13.76213   11.41448
       O    16.61913  -14.28569   11.63437
      H1    16.30920  -14.98189   12.21086
       H     7.19599  -15.09359    8.30300
       O     7.28284  -14.18515    8.57308
      H1     7.23610  -14.17975    9.49124
       H    16.53179  -15.25902    9.41782
       O    15.73352  -15.46311    8.99801
      H1    15.21574  -16.10234    9.46749
       H     8.62818  -16.70756    7.43443
       O     9.53547  -16.76127    7.23862
      H1     9.76041  -15.83009    6.99064
       H    11.51100  -12.31386    8.44515
       O    11.29065  -11.40500    8.48906
      H1    11.39117  -10.94489    7.66770
       H     9.30718   -9.44962    9.30762
       O     9.00093   -9.94586    8.53757
      H1     9.63376  -10.65788    8.41513

