48
frame 9 | Written by MDAnalysis XYZWriter (release 2.4.3)
       H     3.62764   16.33768  -10.59740
       O     2.83262   15.72878  -10.41191
      H1     2.14780   16.43201  -10.27019
       H    -3.34916   17.13771  -12.70616
       O    -3.48444   17.94173  -13.18050
      H1    -2.93192   17.86499  -13.98055
       H     0.82148   16.82035  -13.71830
       O     0.45558   16.00385  -13.39316
      H1    -0.00237   16.18815  -12.54113
       H    -1.85233   18.58665   -6.18601
       O    -1.01363   18.27667   -5.82431
      H1    -0.29678   18.37888   -6.48609
       H    -0.74839   19.01868  -10.71632
       O    -0.68085   18.79358   -9.78900
      H1    -1.59322   18.68273   -9.51624
       H     1.05512   15.05063   -6.40781
       O     0.95688   15.37132   -7.30849
      H1     0.97367   14.58236   -7.88145
       H     3.14609   18.67774  -11.09726
       O     2.22429   18.54833  -11.22453
      H1     1.82229   19.42324  -11.21676
       H     2.56745   17.63004  -14.18155
       O     1.93921   18.24951  -13.89997
      H1     2.08603   18.39818  -12.91254
       H    -4.96297   15.66665   -8.87318
       O    -4.11816   15.63848   -9.47954
      H1    -3.89811   16.58780   -9.47088
       H    -2.10027   18.86580  -12.62227
       O    -1.43624   19.50642  -12.35330
      H1    -1.98301   20.22016  -11.99611
       H     2.91211   18.49803   -8.71330
       O     3.78645   18.16512   -8.40244
      H1     4.34055   19.00646   -8.23871
       H    -3.73486   19.60249   -6.15074
       O    -3.85142   18.69201   -6.48865
      H1    -4.06522   18.27021   -5.64559
       H    -2.18001   15.17881  -12.78465
       O    -2.65643   15.72872  -12.12405
      H1    -2.02369   15.74964  -11.33463
       H    -0.14829   15.22825  -10.08616
       O    -0.57793   15.97232  -10.52012
      H1    -0.42054   16.74709   -9.96192
       H    -3.66971   18.97497   -9.71304
       O    -3.21373   18.32764   -9.14979
      H1    -3.59694   18.48705   -8.25089
       H     1.05965   17.24586   -7.47789
       O     0.87783   18.14853   -7.68186
      H1     0.33790   18.18906   -8.49191

