48
frame 9 | Written by MDAnalysis XYZWriter (release 2.4.3)
       H   -14.76777  -13.44750   -0.50881
       O   -15.20070  -13.83423   -1.29442
      H1   -15.97491  -14.20316   -0.88183
       H   -16.05058  -10.47461   -0.79062
       O   -16.52429   -9.88236   -0.17879
      H1   -15.96174  -10.05787    0.62283
       H    -9.78001   -7.51010    2.08418
       O   -10.02639   -8.39437    2.41987
      H1   -10.46259   -8.93638    1.74197
       H   -16.72671  -15.10441    3.70176
       O   -17.09829  -14.26106    3.37748
      H1   -16.47458  -13.55299    3.58360
       H   -11.57653  -14.48311    2.17173
       O   -11.34385  -13.64833    1.72204
      H1   -10.41547  -13.46182    1.91466
       H   -12.20742  -10.76313    2.39786
       O   -12.37789  -10.95524    1.45947
      H1   -12.32358  -11.92069    1.31529
       H   -13.34287  -13.44494    1.58176
       O   -14.25075  -13.13241    1.29352
      H1   -14.78015  -13.12606    2.08847
       H   -17.10347  -10.63796    2.76950
       O   -18.05494  -10.56363    2.99800
      H1   -18.08192  -10.78763    3.93906
       H   -11.32343   -9.83771    4.22930
       O   -12.27734   -9.89170    4.17827
      H1   -12.60364   -9.09035    4.55181
       H   -14.88502   -9.15837    2.46612
       O   -14.96197  -10.08360    2.20456
      H1   -14.10381  -10.29663    1.85953
       H   -15.42335  -11.33239    3.40309
       O   -15.69717  -11.85918    4.19040
      H1   -15.64950  -11.24819    4.91257
       H   -14.07936   -7.51253    1.95311
       O   -14.74861   -7.37591    2.61878
      H1   -15.47316   -6.80334    2.19618
       H   -15.58962  -10.29947    6.76974
       O   -14.78555  -10.75936    6.47956
      H1   -14.21054   -9.99827    6.27638
       H   -14.32138  -13.36520    4.67401
       O   -14.11133  -14.29913    4.62060
      H1   -14.15670  -14.66112    5.53514
       H   -15.50297   -6.19024    5.68476
       O   -15.78765   -6.91229    5.14052
      H1   -15.26410   -7.02925    4.35335
       H   -13.09930   -7.65977   -0.06968
       O   -12.61381   -8.09689    0.65510
      H1   -12.40311   -8.98258    0.39280

