48
frame 9 | Written by MDAnalysis XYZWriter (release 2.4.3)
       H    -2.53013   12.68852    3.09237
       O    -2.82625   13.59586    3.09167
      H1    -3.77516   13.49490    2.84093
       H    -2.69313   19.32034    3.95050
       O    -2.57242   18.44672    3.57992
      H1    -3.44585   18.08037    3.32515
       H    -1.31619   18.07352    4.99207
       O    -0.71222   17.64119    5.63379
      H1     0.00797   18.28986    5.41256
       H     0.86834   14.33234    6.29430
       O     0.96730   14.30207    7.27652
      H1     1.67037   13.64604    7.37802
       H    -1.66864   14.87431    3.42353
       O    -0.85650   15.39382    3.40787
      H1    -0.95784   15.95063    4.13762
       H     0.67242   12.36989    0.28936
       O     1.51408   11.96311    0.15235
      H1     1.73535   11.96546   -0.81021
       H    -6.32728   13.07816    2.15163
       O    -5.51078   13.58681    1.86858
      H1    -5.76832   14.50747    1.93430
       H    -0.38715   15.85197    1.67311
       O    -0.19340   15.66415    0.73114
      H1    -0.83973   16.04237    0.12748
       H    -2.15142   13.66370    7.13527
       O    -1.59569   13.50171    7.90727
      H1    -0.67551   13.68298    7.72294
       H    -1.84438   11.23993    4.41144
       O    -1.19327   11.50234    3.75588
      H1    -0.95172   10.64262    3.30933
       H     1.95316   16.62206    2.45353
       O     2.43649   16.57566    3.33384
      H1     1.91277   16.08063    3.95184
       H     0.50180   12.50473    4.20322
       O     0.78199   13.41351    4.26713
      H1     0.14173   13.94449    3.78115
       H    -1.41895   17.83405    7.23914
       O    -1.83634   18.09544    8.08392
      H1    -2.24545   17.31787    8.48784
       H    -5.04300   16.31211    6.05020
       O    -4.51637   15.98278    6.81001
      H1    -5.19024   15.37424    7.23315
       H    -3.74886   14.67560    6.03892
       O    -3.22095   13.86435    5.86132
      H1    -2.99035   13.81361    4.96330
       H    -4.57368   12.52060    5.99057
       O    -4.99490   11.67359    5.89849
      H1    -5.64470   11.58286    6.63807

