48
frame 9 | Written by MDAnalysis XYZWriter (release 2.4.3)
       H    14.86367    3.19143  -18.07370
       O    15.73359    3.38011  -18.44565
      H1    15.79949    2.97710  -19.32027
       H    14.22568   -0.10380  -15.76247
       O    14.72774    0.43160  -16.46235
      H1    15.63259    0.54016  -16.14814
       H    13.05785    2.25248  -18.25811
       O    13.26169    2.49566  -17.32316
      H1    13.78038    1.71514  -16.98873
       H    12.96820    5.49953  -16.31323
       O    13.67589    6.04465  -16.53686
      H1    14.43051    5.59250  -16.19626
       H    10.27355   -0.90169  -17.61017
       O    10.97427   -0.89548  -16.91917
      H1    10.78911   -1.61902  -16.33051
       H    17.52311    0.15035  -15.29374
       O    17.20118    1.00716  -15.55232
      H1    17.79691    1.20199  -16.28552
       H    11.53463    6.20148  -15.13940
       O    11.02707    5.93670  -15.92674
      H1    10.60928    5.14755  -15.79083
       H    10.31907    0.24170  -15.64101
       O     9.69814    0.84781  -15.13939
      H1     9.41618    0.25462  -14.46345
       H    14.09002   -0.65647  -17.80846
       O    13.39836   -0.89133  -18.48049
      H1    12.54206   -0.94122  -18.00059
       H    10.56383    6.28089  -19.07242
       O     9.90394    5.85277  -18.54032
      H1    10.28539    6.03947  -17.67468
       H    10.96062    2.90729  -17.79072
       O    10.14109    3.07344  -18.19231
      H1    10.22380    4.01324  -18.43173
       H    17.09312    3.84966  -15.25455
       O    17.37621    3.44367  -14.42916
      H1    17.41921    2.53425  -14.55976
       H    12.90828    1.62652  -14.11135
       O    13.01082    1.29764  -13.19775
      H1    13.04262    2.14403  -12.66303
       H    12.31555    2.63475  -15.89097
       O    11.74656    2.82054  -15.13622
      H1    11.01813    2.14381  -15.09957
       H    13.67989    6.93242  -18.64921
       O    13.04918    7.21150  -19.32439
      H1    12.79199    6.38797  -19.74180
       H    16.98695    5.57300  -16.26603
       O    16.17136    5.03607  -16.23235
      H1    16.29254    4.46314  -16.98738

