48
frame 9 | Written by MDAnalysis XYZWriter (release 2.4.3)
       H    -1.60744   17.35510   -1.91119
       O    -1.97313   17.19853   -1.01225
      H1    -1.70383   18.00036   -0.51244
       H     2.74667   17.63090   -3.76593
       O     2.55139   17.56820   -2.85307
      H1     1.69617   18.01916   -2.89637
       H     2.81104   18.09182    0.50026
       O     1.94940   17.92546    0.85740
      H1     1.38292   17.92601    0.09680
       H     1.98944   18.28748    4.47086
       O     1.62105   18.83132    5.17679
      H1     2.16032   19.63157    5.19443
       H     2.09862   16.16736   -1.44095
       O     1.80254   15.27416   -1.24306
      H1     1.19783   15.34721   -0.54206
       H     5.35614   14.65135    2.64623
       O     5.00783   15.49721    2.23931
      H1     4.23763   15.67176    2.77420
       H    -1.66864   14.87431    3.42353
       O    -0.85650   15.39382    3.40787
      H1    -0.95784   15.95063    4.13762
       H     5.11225   18.97750   -1.72105
       O     4.31464   19.59719   -1.75530
      H1     3.65299   18.97613   -2.18503
       H    -0.29860   18.83374   -4.11950
       O     0.21293   19.07006   -3.33040
      H1    -0.31897   19.75274   -2.86846
       H    -0.38715   15.85197    1.67311
       O    -0.19340   15.66415    0.73114
      H1    -0.83973   16.04237    0.12748
       H     5.92400   17.20165    3.30373
       O     6.38022   17.34705    4.18760
      H1     5.97706   16.60917    4.62470
       H    -0.74354   19.83341    0.72376
       O    -1.56612   19.48004    0.44306
      H1    -2.24788   19.41489    1.15109
       H     6.10920   18.93490    1.73295
       O     6.81122   18.30281    1.40366
      H1     7.57145   18.40828    1.96887
       H     3.37438   14.56710   -2.13763
       O     3.92655   13.93641   -2.63215
      H1     3.87042   14.15835   -3.55448
       H     1.95316   16.62206    2.45353
       O     2.43649   16.57566    3.33384
      H1     1.91277   16.08063    3.95184
       H     5.65851   15.28143    0.02879
       O     6.02681   14.49931   -0.38075
      H1     6.95751   14.68534   -0.16588

