48
frame 9 | Written by MDAnalysis XYZWriter (release 2.4.3)
       H   -16.47892   -6.13625    9.29641
       O   -16.84971   -6.79357    8.66960
      H1   -17.29269   -6.27947    8.02167
       H   -11.89819   -5.13494    3.25461
       O   -12.37286   -4.83168    4.03994
      H1   -11.86974   -5.11205    4.85682
       H   -15.81461   -3.57311    2.69828
       O   -16.58385   -3.47049    2.16644
      H1   -16.55276   -4.16637    1.48038
       H   -11.32343   -9.83771    4.22930
       O   -12.27734   -9.89170    4.17827
      H1   -12.60364   -9.09035    4.55181
       H   -13.90113   -3.97894    4.03209
       O   -14.68892   -3.40517    4.13658
      H1   -15.15202   -3.76015    4.91402
       H   -14.52462   -7.83951    6.07977
       O   -13.77936   -8.36314    6.45222
      H1   -13.88929   -8.33699    7.37793
       H   -14.88502   -9.15837    2.46612
       O   -14.96197  -10.08360    2.20456
      H1   -14.10381  -10.29663    1.85953
       H   -10.88947   -7.09065    6.30852
       O   -11.70160   -6.50194    6.29671
      H1   -12.38405   -7.17441    6.20148
       H   -19.01688   -4.37464    4.47365
       O   -18.97311   -3.86944    3.65583
      H1   -18.16683   -4.16636    3.16058
       H   -15.42335  -11.33239    3.40309
       O   -15.69717  -11.85918    4.19040
      H1   -15.64950  -11.24819    4.91257
       H   -14.07936   -7.51253    1.95311
       O   -14.74861   -7.37591    2.61878
      H1   -15.47316   -6.80334    2.19618
       H   -17.81554   -7.00009    1.46127
       O   -17.07388   -6.35313    1.32329
      H1   -16.71486   -6.69087    0.47396
       H   -15.58962  -10.29947    6.76974
       O   -14.78555  -10.75936    6.47956
      H1   -14.21054   -9.99827    6.27638
       H   -15.50297   -6.19024    5.68476
       O   -15.78765   -6.91229    5.14052
      H1   -15.26410   -7.02925    4.35335
       H   -13.75296   -4.64970    6.82801
       O   -14.71036   -4.92745    6.70382
      H1   -15.23312   -4.44137    7.32787
       H   -17.71096   -6.69107    5.16628
       O   -18.56163   -6.29725    5.42736
      H1   -19.18404   -6.57894    4.74906

