48
frame 9 | Written by MDAnalysis XYZWriter (release 2.4.3)
       H    15.36379  -12.92404   11.84898
       O    15.17989  -13.38067   12.63902
      H1    15.57596  -12.81132   13.36457
       H    12.97863  -16.02281   12.35283
       O    12.79751  -16.11741   11.40828
      H1    11.95642  -16.58776   11.26571
       H    16.59151  -14.14996   17.29495
       O    16.58718  -14.86818   17.94835
      H1    17.47182  -15.29445   17.83479
       H    12.40591  -14.36069   15.04681
       O    11.85688  -13.64864   15.47474
      H1    11.04607  -13.88395   15.04347
       H    19.37444  -15.14488   14.90609
       O    19.26345  -15.87969   15.50271
      H1    19.83701  -16.61350   15.16348
       H    16.90129  -17.13173   14.31960
       O    16.95446  -17.62179   13.49188
      H1    17.87457  -17.44764   13.24343
       H    17.78570  -17.86703   19.31211
       O    18.25901  -18.09638   18.48540
      H1    19.22515  -18.19065   18.82331
       H    15.25987  -12.85873   15.83251
       O    16.18514  -13.13728   16.01263
      H1    16.70816  -12.36655   15.85057
       H    13.10336  -12.30718   18.96848
       O    13.48754  -11.71680   19.65391
      H1    12.69535  -11.27583   19.96393
       H    19.09343  -12.76348   14.57120
       O    18.98095  -13.42152   13.87951
      H1    18.23089  -14.01636   13.94762
       H    14.79038  -15.50621   14.96699
       O    13.97885  -14.99887   14.55416
      H1    14.41038  -14.46131   13.94767
       H    12.71427  -14.68121   18.23608
       O    12.23892  -13.84059   18.13983
      H1    12.10597  -13.77369   17.15982
       H     9.91936  -17.92353   17.03273
       O    10.46772  -18.13824   16.29871
      H1    10.72574  -17.30530   15.86164
       H    16.14126  -14.72917   12.32231
       O    16.79617  -15.42018   12.06606
      H1    16.52034  -16.22133   12.61590
       H    15.78631  -16.07620   16.53493
       O    15.95893  -16.51009   15.67401
      H1    15.95638  -17.39481   15.98305
       H    14.46490  -19.08326   17.31060
       O    14.08897  -18.69112   18.07995
      H1    13.76948  -17.80101   17.87494

