48
frame 10 | Written by MDAnalysis XYZWriter (release 2.4.3)
       H    -6.29792   15.76346  -16.26785
       O    -5.45469   15.30426  -16.17382
      H1    -4.95799   15.45922  -16.95072
       H    -2.75304   17.11257  -13.19622
       O    -3.14555   17.90512  -13.56435
      H1    -2.46579   18.10331  -14.20200
       H    -5.06420   17.68385  -14.53333
       O    -5.92868   18.07582  -14.68390
      H1    -6.06887   18.47368  -13.79673
       H    -5.54330   18.81794  -16.46527
       O    -5.21213   19.50975  -17.02329
      H1    -5.98885   19.79780  -17.51236
       H    -1.98768   17.09324  -17.26777
       O    -1.30705   16.57516  -16.85690
      H1    -1.42477   15.61605  -16.89059
       H    -3.72475   16.79276  -18.52688
       O    -3.93351   15.89689  -18.34470
      H1    -4.39399   15.62822  -19.17879
       H    -5.98146   13.47575  -16.19638
       O    -6.34806   12.64647  -16.50855
      H1    -6.04488   11.89072  -15.98149
       H     0.11704   18.30540  -14.47369
       O    -0.63089   18.45803  -15.05513
      H1    -0.84991   17.61613  -15.41823
       H    -8.46196   16.97690  -12.21838
       O    -8.37110   17.55533  -11.42871
      H1    -8.32244   17.07370  -10.61846
       H    -5.77672   19.32246  -11.40912
       O    -6.40315   19.13663  -12.16970
      H1    -7.11498   18.55128  -11.87134
       H    -7.43065   16.96855  -14.39463
       O    -8.11038   16.31325  -14.15645
      H1    -8.21806   15.76583  -14.94380
       H    -6.05069   17.01109  -18.12270
       O    -6.81911   17.06555  -17.50652
      H1    -7.50853   16.57280  -17.91074
       H    -3.58862   18.97711  -17.52051
       O    -2.85496   18.57728  -17.99335
      H1    -2.87499   18.98256  -18.87700
       H    -1.71542   18.07557  -11.74481
       O    -1.48682   18.74812  -11.08479
      H1    -1.86485   19.55738  -11.44972
       H    -7.16198   13.98778  -13.23221
       O    -6.19433   14.21332  -13.33826
      H1    -6.21598   15.20161  -13.35019
       H    -2.21260   15.29241  -12.49973
       O    -2.57961   15.84753  -11.76794
      H1    -2.00013   15.68089  -11.02478

