48
frame 10 | Written by MDAnalysis XYZWriter (release 2.4.3)
       H   -18.23528   12.32867   -8.96235
       O   -18.35041   11.35197   -8.77259
      H1   -19.24938   11.11338   -9.03627
       H   -18.11925   13.23430   -5.83889
       O   -18.50277   14.09459   -5.66516
      H1   -19.25391   14.04601   -6.23627
       H   -14.42976   12.20572  -10.03691
       O   -14.72973   12.42983   -9.12129
      H1   -15.33051   13.16944   -9.18369
       H   -15.85336   16.73074  -12.04080
       O   -16.16957   17.55971  -12.51294
      H1   -16.62923   18.19334  -11.93802
       H   -16.09182   17.59236   -2.49948
       O   -16.26047   16.71048   -2.89967
      H1   -16.51071   16.97705   -3.79470
       H   -17.02610   13.27265  -12.47396
       O   -17.76454   13.22431  -11.84064
      H1   -18.13813   14.04440  -12.01110
       H   -17.22388   13.56587  -10.23009
       O   -17.05486   13.80064   -9.33546
      H1   -17.11518   14.73237   -9.16134
       H   -14.83406   15.71759  -10.39428
       O   -14.95339   15.36279  -11.34434
      H1   -14.12351   14.98656  -11.70133
       H   -13.29221   16.24023   -8.05611
       O   -12.48535   15.97924   -7.63050
      H1   -12.48799   16.32790   -6.72502
       H   -18.28086   17.69313   -4.68811
       O   -17.40285   17.83067   -5.03472
      H1   -17.37058   17.11162   -5.75390
       H   -16.65564   19.61994   -9.48928
       O   -16.48136   19.09483   -8.67216
      H1   -15.92879   19.69178   -8.10811
       H   -17.77286   17.80007   -8.43202
       O   -18.11793   16.87708   -8.55267
      H1   -18.93788   16.86233   -7.98615
       H   -15.60201   17.32319   -8.88938
       O   -15.04123   16.48792   -8.82161
      H1   -15.38277   15.92722   -8.15376
       H   -17.67531   11.39253   -6.90428
       O   -17.46638   11.56071   -5.97476
      H1   -16.64991   11.11769   -5.81008
       H   -17.92523   16.66198  -12.27438
       O   -18.59648   15.95360  -12.31936
      H1   -18.84970   15.80698  -13.24993
       H   -15.44428   14.56854   -6.02485
       O   -16.15885   14.97245   -6.54162
      H1   -17.00850   14.74766   -6.11242

