48
frame 10 | Written by MDAnalysis XYZWriter (release 2.4.3)
       H   -14.76146  -12.55040   -0.30355
       O   -14.78673  -13.04252   -1.14482
      H1   -15.69692  -12.84823   -1.49288
       H   -16.19713   -7.03999   -2.81415
       O   -15.95654   -6.61641   -1.97602
      H1   -14.97323   -6.54745   -1.92219
       H   -17.21224  -12.00443    0.34633
       O   -17.29981  -11.11802   -0.02879
      H1   -16.90139  -10.55483    0.65015
       H   -18.24405  -14.84739   -3.74664
       O   -19.09386  -14.39437   -3.50002
      H1   -19.63270  -15.00576   -2.98719
       H   -18.94341   -6.85943   -0.26440
       O   -19.57130   -6.39193   -0.81383
      H1   -19.93509   -5.60140   -0.31578
       H   -18.07572  -10.16760   -1.19225
       O   -18.74947   -9.91481   -1.80118
      H1   -19.61966  -10.33852   -1.52927
       H   -17.36986  -11.14692    3.77639
       O   -18.29775  -11.25589    3.44124
      H1   -18.78564  -11.56442    4.20529
       H   -18.08472  -14.10153    1.47003
       O   -18.00834  -13.77068    0.55318
      H1   -18.87398  -13.95661    0.17733
       H   -15.94241   -9.23911   -3.17712
       O   -15.63292  -10.06551   -2.66906
      H1   -15.92581  -10.82559   -3.17181
       H   -18.79081   -9.89073    2.20518
       O   -19.19625   -9.00345    1.92108
      H1   -20.04841   -9.35588    1.56324
       H   -17.94245  -13.11385   -2.80023
       O   -17.18748  -12.58396   -2.54415
      H1   -17.53554  -11.85799   -1.98407
       H   -15.66549   -9.25746    2.40812
       O   -15.54323  -10.17108    2.00035
      H1   -14.57671  -10.19216    1.76280
       H   -16.02242  -13.47827   -6.47232
       O   -15.98835  -12.74769   -5.85409
      H1   -16.86406  -12.41503   -5.80681
       H   -19.13355   -9.32025   -3.50621
       O   -19.52150   -8.86168   -4.30159
      H1   -20.05859   -8.10464   -3.88797
       H   -17.39450   -8.38540   -4.56203
       O   -16.56625   -7.97747   -4.33647
      H1   -16.41328   -7.29551   -4.94297
       H   -17.80728   -8.44811    0.63344
       O   -17.23900   -7.70278    0.45872
      H1   -17.17363   -7.57055   -0.56199

