48
frame 10 | Written by MDAnalysis XYZWriter (release 2.4.3)
       H     8.52632   -3.62147   17.28985
       O     9.20124   -3.51958   16.56805
      H1     9.82929   -2.82978   16.77399
       H     9.82002   -1.40040   19.04905
       O     9.84954   -1.77397   19.94540
      H1    10.65209   -2.33821   19.97818
       H     4.79509   -4.34003   16.24699
       O     5.02783   -3.64655   15.53311
      H1     6.00496   -3.76498   15.30447
       H    12.82412   -4.00741   18.36611
       O    13.40255   -4.66154   17.87110
      H1    14.27280   -4.33745   18.12051
       H    10.20063   -5.63602   15.65025
       O    10.88051   -5.63317   14.92825
      H1    11.69798   -5.17578   15.30850
       H     7.40237   -4.05720   19.14418
       O     7.09103   -4.07576   18.24189
      H1     6.65712   -3.22923   18.11768
       H    10.51523   -0.92092   16.91505
       O    11.32949   -1.44414   16.99400
      H1    11.63953   -1.62173   16.11689
       H     7.52773   -4.87644   14.23191
       O     7.67262   -3.90210   14.25535
      H1     8.20029   -3.81389   15.06153
       H     7.10811   -0.82969   13.43493
       O     7.30780   -0.30596   14.18824
      H1     6.92158   -0.81195   14.87794
       H     9.87779   -6.27029   18.43367
       O    10.42484   -6.39719   17.62458
      H1    11.28320   -6.54315   18.03798
       H    12.50603   -3.28701   15.15568
       O    13.16719   -4.04073   15.36024
      H1    13.15447   -4.14747   16.33336
       H     8.81645    0.11545   18.42350
       O     8.85823   -0.33775   17.60158
      H1     8.70679    0.38414   16.93627
       H    12.68576   -0.17183   16.37419
       O    13.50976    0.42393   16.37531
      H1    13.78971    0.73596   15.46628
       H     8.94079    0.14477   14.34953
       O     9.88440    0.30959   14.52431
      H1     9.83215    1.19037   14.90968
       H     6.96901   -6.53563   15.81583
       O     6.76149   -6.63613   16.73665
      H1     7.02314   -5.81888   17.17864
       H    10.87971   -1.45468   14.40184
       O    11.48563   -2.16941   14.24197
      H1    11.91054   -1.83709   13.41636

