48
frame 10 | Written by MDAnalysis XYZWriter (release 2.4.3)
       H   -15.61110   -2.40092  -10.69227
       O   -15.48700   -3.29746  -11.07497
      H1   -15.61173   -3.31121  -12.00794
       H   -16.81500   -8.13584  -15.20025
       O   -17.62065   -7.66450  -15.07414
      H1   -17.73857   -7.53242  -14.13130
       H   -11.61018   -9.93818  -13.34771
       O   -11.95633  -10.36022  -14.14123
      H1   -11.17310  -10.69014  -14.65088
       H   -16.97575   -4.13640  -13.38054
       O   -16.04387   -4.10064  -13.61990
      H1   -15.60569   -4.94294  -13.30265
       H   -11.76155   -5.42981  -12.12846
       O   -11.47883   -5.49046  -11.18809
      H1   -11.98467   -4.75847  -10.74959
       H   -15.70828   -9.75450  -14.47701
       O   -15.01380   -9.07965  -14.57879
      H1   -14.20976   -9.49130  -14.18459
       H   -13.19959   -7.81184   -9.81716
       O   -14.05880   -7.33082   -9.83157
      H1   -13.79833   -6.43718  -10.13348
       H   -11.75134   -8.88914  -15.38830
       O   -11.32725   -8.35901  -16.07984
      H1   -11.26063   -8.98918  -16.75682
       H   -13.78533  -10.78528  -11.08720
       O   -14.36477  -10.41380  -11.72325
      H1   -14.51146  -11.22570  -12.28720
       H   -13.07680   -4.68109  -16.11431
       O   -12.82221   -4.73933  -17.02601
      H1   -13.38623   -4.12090  -17.41983
       H   -19.22466   -7.94239  -12.05717
       O   -18.73671   -7.28873  -12.60675
      H1   -19.36233   -6.69654  -13.07064
       H   -17.15682   -3.98693  -16.99751
       O   -16.58383   -3.48203  -16.37758
      H1   -16.48810   -4.09351  -15.57719
       H   -15.65193   -8.30686   -9.99701
       O   -16.42684   -8.90476  -10.22118
      H1   -15.85036   -9.58813  -10.56291
       H   -16.81854  -11.60444  -14.49212
       O   -16.98383  -10.78021  -14.92966
      H1   -17.94995  -10.72902  -15.02154
       H   -13.41117   -9.45704  -17.14893
       O   -14.27520   -9.08991  -17.20648
      H1   -14.65888   -9.08471  -16.35556
       H   -15.09601   -6.79661  -12.18832
       O   -14.74936   -6.47132  -13.00949
      H1   -14.61232   -7.35296  -13.42665

