48
frame 10 | Written by MDAnalysis XYZWriter (release 2.4.3)
       H   -17.08969   13.36452  -19.63412
       O   -16.93174   12.42998  -19.69844
      H1   -16.07114   12.22649  -19.27500
       H   -13.92275   12.03509  -12.27202
       O   -14.22318   11.25393  -11.66297
      H1   -15.20701   11.36014  -11.63435
       H   -19.88467   16.44800  -17.70457
       O   -19.54980   15.61243  -18.12533
      H1   -19.11572   15.01842  -17.40585
       H   -14.04100    8.23018  -11.49139
       O   -13.62178    8.75859  -12.17851
      H1   -13.77490    9.70612  -12.07450
       H   -13.76160   11.77934  -19.60125
       O   -14.27671   11.51104  -18.82087
      H1   -14.28602   10.55143  -18.91800
       H   -17.95887   11.42071  -18.69862
       O   -18.19840   10.93717  -17.87457
      H1   -17.43829   10.92345  -17.29065
       H   -17.02610   13.27265  -12.47396
       O   -17.76454   13.22431  -11.84064
      H1   -18.13813   14.04440  -12.01110
       H   -12.90784   13.85585  -13.65760
       O   -13.62578   13.26369  -13.47863
      H1   -14.40714   13.70525  -13.81965
       H   -13.55721   13.67931  -17.04088
       O   -14.39922   14.24053  -16.95383
      H1   -14.82756   14.19093  -17.78983
       H   -17.34923    7.92592  -15.50609
       O   -16.53785    8.25402  -15.87267
      H1   -16.51943    9.18866  -15.69483
       H   -11.65164   12.64759  -16.62210
       O   -12.19153   12.98232  -17.42256
      H1   -12.82749   12.23098  -17.58563
       H   -16.17941   12.07424  -15.45108
       O   -15.85524   11.14339  -15.40811
      H1   -15.24979   11.06812  -14.65023
       H   -18.96286   13.61539  -15.91562
       O   -18.35991   13.56743  -16.68804
      H1   -18.56700   12.81525  -17.23885
       H   -15.84167   14.17004  -15.24581
       O   -16.34203   13.79551  -14.51490
      H1   -17.09675   13.51288  -14.97360
       H   -15.35658    8.73819  -19.67787
       O   -14.87472    8.83149  -18.85714
      H1   -15.53658    8.63409  -18.18581
       H   -13.80482    8.09962  -14.00100
       O   -13.91767    7.72221  -14.91719
      H1   -14.90250    7.70552  -14.99879

