51
frame 0 | Written by MDAnalysis XYZWriter (release 2.4.3)
       H    17.36499   -1.50474   11.88717
       O    17.28384   -2.02809   12.68453
      H1    16.36536   -2.01196   12.91221
       H    12.40096   -4.59615    6.75555
       O    13.24751   -4.24519    7.02335
      H1    13.50938   -3.69295    6.32687
       H    14.96996    0.17551   10.97903
       O    14.45030   -0.52738   11.45696
      H1    14.30866   -1.25243   10.83734
       H    18.76949   -4.79813    7.23019
       O    18.58650   -4.08564    7.87319
      H1    17.80855   -4.37742    8.41643
       H    14.88895   -2.27733    8.41262
       O    14.80134   -2.59929    9.32140
      H1    15.50313   -3.23404    9.44987
       H    14.19431   -4.35808    4.51656
       O    14.35875   -3.36685    4.55234
      H1    15.11452   -3.29997    5.13016
       H    17.00148   -1.87989    5.44748
       O    17.11598   -2.84340    5.47047
      H1    17.35224   -3.01627    6.35573
       H    14.06779   -1.04719    5.89847
       O    14.06855   -1.23713    6.80674
      H1    13.20126   -1.54680    7.00022
       H    18.60948   -0.67192    7.32113
       O    17.99545   -0.17930    7.89755
      H1    17.27473    0.21289    7.40837
       H    15.91640   -5.24383    9.13655
       O    16.68083   -4.83199    9.51515
      H1    17.12383   -5.58120    9.90808
       H    18.29672   -0.75983    9.67060
       O    18.61171   -0.74531   10.55278
      H1    19.40970   -0.20264   10.45604
       H    13.99867   -5.87936    8.20027
       O    14.59688   -6.50360    8.64400
      H1    14.88892   -7.13440    7.91038
       H    10.92591   -1.92257    8.20063
       O    10.22367   -1.56412    7.65520
      H1     9.88626   -2.34670    7.19686
       H    11.59733   -0.91348    9.92831
       O    11.22003    0.03671    9.99898
      H1    10.43252    0.06935    9.38120
       H    16.31818    2.40763    6.68415
       O    16.11280    1.43080    6.66280
      H1    15.15424    1.39739    6.63233
       H    11.54269   -3.24693    9.93033
       O    11.98260   -2.42790    9.54155
      H1    12.88101   -2.71186    9.45545
       H    12.25086    2.49763    8.51013
       O    12.92630    1.90224    8.82328
      H1    12.42339    1.17953    9.26941

