51
frame 1 | Written by MDAnalysis XYZWriter (release 2.4.3)
       H     7.97019    5.11754   -8.91606
       O     8.86923    5.04474   -8.54920
      H1     8.84994    4.25578   -7.97106
       H     9.57358    7.40851  -11.20187
       O     9.65873    8.01550  -10.49759
      H1     9.96299    7.46150   -9.74861
       H    10.43041    1.86583   -7.38649
       O     9.50222    2.26439   -7.23421
      H1     8.89812    1.76520   -7.86923
       H     5.32014    2.86376   -7.24046
       O     4.81583    2.54119   -8.04848
      H1     4.24539    1.80256   -7.85000
       H     5.66281    2.45102  -11.16170
       O     6.21585    2.43881  -11.93640
      H1     7.07338    2.68949  -11.50987
       H     6.49197    6.40733   -9.24070
       O     6.66662    5.64597   -9.87944
      H1     6.90000    6.03138  -10.76815
       H    10.08116    8.08858   -7.46311
       O    10.47862    7.36023   -7.97949
      H1     9.86392    6.59786   -7.93491
       H     9.07745    3.86253  -11.89474
       O     8.75320    3.21127  -11.26767
      H1     8.74381    3.73480  -10.40186
       H     5.65997    4.50164   -5.54011
       O     6.22852    3.79655   -5.95125
      H1     6.88187    3.48091   -5.29013
       H     8.53804    7.77578   -5.71041
       O     7.96230    8.40748   -6.17582
      H1     7.38753    7.92954   -6.77003
       H     6.89849    0.69670   -9.78518
       O     7.17038    1.45856   -9.28291
      H1     6.44405    1.73179   -8.68043
       H     5.27996    6.61413   -7.83777
       O     5.83845    7.41755   -7.80780
      H1     5.20834    8.20134   -7.73953
       H     7.76535    6.36898  -12.78123
       O     6.86899    6.11278  -12.50432
      H1     6.42498    6.95544  -12.20648
       H    12.62706    4.93616   -7.86322
       O    11.88855    4.39913   -7.56950
      H1    11.52228    4.17588   -8.40869
       H     8.75022    2.31278   -5.65401
       O     8.25485    2.28172   -4.78398
      H1     8.56161    3.01539   -4.24577
       H     4.16357    4.22494   -7.83159
       O     3.79167    5.11283   -7.75333
      H1     2.85297    4.99756   -7.52907
       H     9.95969    6.05801   -4.79118
       O    10.08121    7.01266   -4.88427
      H1    10.50060    7.14937   -5.77565

