51
frame 1 | Written by MDAnalysis XYZWriter (release 2.4.3)
       H    -5.73929   -7.96234   -2.63323
       O    -5.32398   -8.39131   -1.88249
      H1    -5.14897   -7.61155   -1.37547
       H    -7.18284   -8.13918    2.13033
       O    -8.10411   -7.83407    2.01475
      H1    -8.20166   -7.94300    1.01972
       H    -7.44021  -12.00438    5.43479
       O    -7.16587  -11.60574    4.58761
      H1    -7.86233  -11.74232    3.95435
       H    -9.70944  -12.31331    3.93544
       O    -9.41235  -11.81721    3.15291
      H1    -9.00778  -12.42851    2.53454
       H    -7.66882  -15.82783    3.12111
       O    -6.91007  -15.43988    2.65361
      H1    -7.15230  -15.62774    1.71123
       H    -5.36517  -11.84628    0.81857
       O    -5.74116  -11.84101    1.73908
      H1    -5.28122  -12.40804    2.34050
       H    -5.61553  -15.20137   -0.71294
       O    -4.95465  -14.69976   -1.19857
      H1    -4.14259  -15.24292   -1.07432
       H    -5.88152  -12.98689    4.27297
       O    -5.15339  -13.63868    4.02405
      H1    -5.74295  -14.26251    3.52032
       H    -8.48966   -8.90637   -1.11636
       O    -8.01263   -8.11385   -0.82339
      H1    -7.05508   -8.27416   -1.02455
       H    -1.57272  -11.22747    3.03491
       O    -2.37874  -11.62656    2.66814
      H1    -2.78517  -10.95494    2.11444
       H    -7.80233  -12.81260   -2.38014
       O    -7.26305  -12.20294   -2.95632
      H1    -6.54014  -12.04630   -2.34813
       H    -4.52314  -11.36759   -1.36982
       O    -5.13629  -11.88571   -0.82924
      H1    -4.83250  -12.78165   -0.93701
       H    -7.25504  -16.52332   -0.73520
       O    -7.04521  -15.87723   -0.03315
      H1    -7.47191  -15.05110   -0.22693
       H    -3.71537   -8.57950    2.88554
       O    -2.88505   -8.12846    2.83263
      H1    -2.70259   -8.05376    1.84778
       H    -7.41627  -12.23959    1.03280
       O    -8.04856  -12.94529    0.82713
      H1    -8.85680  -12.57496    0.40650
       H    -5.52776   -9.94433    2.05369
       O    -5.35468   -9.03201    2.10298
      H1    -5.43480   -8.71976    3.01293
       H    -4.02662   -9.98733   -2.56127
       O    -3.40609  -10.71088   -2.67285
      H1    -2.51054  -10.52928   -2.28633

