51
frame 0 | Written by MDAnalysis XYZWriter (release 2.4.3)
       H     1.72247   12.11137   -8.41110
       O     2.70026   12.24282   -8.44997
      H1     2.86338   13.17670   -8.60524
       H     4.08446   12.21206  -12.29233
       O     4.07699   11.86166  -11.42074
      H1     3.16831   11.77026  -11.16060
       H     7.13919    9.58215   -4.64097
       O     6.91250   10.20297   -3.93355
      H1     6.04268   10.59515   -4.22263
       H     3.80373    7.65959   -5.57332
       O     3.23440    8.48061   -5.80091
      H1     2.45258    8.15942   -6.25435
       H     3.51021    8.59232  -11.85551
       O     4.24605    8.89700  -11.26562
      H1     4.20851    9.85965  -11.27859
       H     6.43762    6.37752   -9.07111
       O     6.53382    5.58757   -9.69434
      H1     6.18346    5.75741  -10.61064
       H     2.66339   12.15827   -6.62303
       O     2.78454   12.19771   -5.65390
      H1     1.94363   12.02302   -5.25549
       H     1.27479   10.27091  -10.41813
       O     1.46440   11.11787  -10.85130
      H1     1.33400   11.77489  -10.21861
       H     7.99337   12.91632   -8.61171
       O     7.03225   12.67805   -8.68534
      H1     6.69678   13.08395   -9.49298
       H     7.85290    8.00581   -6.54069
       O     8.08513    8.20421   -5.62322
      H1     8.60854    8.99981   -5.79018
       H     5.42909    7.06687   -7.33814
       O     6.12264    7.42055   -7.86375
      H1     5.86203    8.34544   -7.79265
       H     5.68135   10.93687   -8.21916
       O     5.34663   10.14735   -7.68398
      H1     4.51717    9.84103   -8.02432
       H     3.72964    8.81977   -9.72603
       O     3.42323    8.78219   -8.79856
      H1     3.69464    7.88006   -8.62954
       H     3.96875    9.74035   -4.73775
       O     4.09167   10.33467   -3.95560
      H1     3.72460   11.10620   -4.34055
       H     6.18309   12.89422   -7.22306
       O     5.44722   12.92082   -6.58407
      H1     5.06030   12.06493   -6.59576
       H    -0.02268    8.92514   -8.70718
       O     0.69941    8.61945   -9.27860
      H1     1.53876    8.79299   -8.86346
       H     4.37484    4.80514   -8.44767
       O     3.76684    5.56658   -8.56593
      H1     2.92157    5.16309   -8.32981

