51
frame 1 | Written by MDAnalysis XYZWriter (release 2.4.3)
       H    -5.93324   11.15843  -13.83554
       O    -6.21502   11.93256  -13.31119
      H1    -6.53002   11.42512  -12.49809
       H    -6.73384   13.95164  -15.41081
       O    -6.59848   13.90429  -16.38411
      H1    -5.68956   14.20592  -16.53023
       H    -3.78431   15.86537  -17.88874
       O    -3.89050   14.95136  -17.51700
      H1    -4.29910   14.51614  -18.30710
       H    -8.19682   11.55733  -17.08695
       O    -8.91108   11.77903  -16.51861
      H1    -9.70885   11.46186  -16.92972
       H    -6.06568   17.48115  -17.81409
       O    -6.42095   18.18410  -17.27488
      H1    -6.69030   18.89501  -17.88947
       H    -6.92984   16.72396  -13.04905
       O    -7.86022   16.55266  -13.23087
      H1    -8.03535   16.75231  -14.20382
       H    -7.72396   17.50475  -16.26207
       O    -8.51882   17.05281  -15.88067
      H1    -9.07939   17.74012  -15.41723
       H    -1.57332   13.03252  -18.18889
       O    -1.53222   12.89865  -17.22630
      H1    -1.81021   13.74824  -16.78399
       H    -9.08547   15.13762  -16.54861
       O    -9.64893   14.44342  -16.79333
      H1    -9.24519   13.63699  -16.46883
       H    -7.71713   12.83396  -19.12310
       O    -7.14483   12.21226  -18.66584
      H1    -6.91381   12.69890  -17.90028
       H    -9.30620   16.92096  -17.93831
       O    -9.35454   16.79607  -18.91223
      H1    -9.50212   17.52237  -19.44459
       H    -3.36700   18.38448  -18.34729
       O    -3.55541   17.65656  -19.01741
      H1    -2.68881   17.22860  -19.24650
       H    -2.62456   15.29848  -15.98058
       O    -1.81969   15.08292  -15.51420
      H1    -2.11306   15.17553  -14.62389
       H    -7.41843   13.21374  -13.58018
       O    -8.07330   13.89327  -13.83184
      H1    -7.82973   14.75801  -13.43573
       H    -8.82748   11.47968  -14.42638
       O    -9.20636   10.96671  -13.67216
      H1    -8.62433   11.06573  -12.96705
       H    -9.61066   15.03269  -19.44518
       O    -9.62835   14.08275  -19.66736
      H1    -9.53335   13.72929  -18.76500
       H    -3.42109    9.99419  -17.33529
       O    -3.10432   10.51146  -16.62585
      H1    -2.62166   11.23089  -17.07221

