51
frame 2 | Written by MDAnalysis XYZWriter (release 2.4.3)
       H     9.47671  -14.08818    5.95495
       O    10.30646  -14.13020    6.36940
      H1    10.97115  -14.38967    5.68871
       H     9.05416  -17.74179    1.60952
       O     9.31915  -16.81243    1.79708
      H1     9.25260  -16.78909    2.73106
       H     2.79869  -15.18037    1.38735
       O     2.75478  -15.73137    2.15329
      H1     3.49882  -16.31855    2.10416
       H     5.28790  -18.14422    1.62320
       O     4.80325  -17.36666    1.64056
      H1     5.57465  -16.79795    1.86874
       H     4.41068  -11.90712    8.35816
       O     3.76592  -12.46784    7.90304
      H1     4.39085  -13.14466    7.40937
       H     7.66917  -15.87273    1.63136
       O     6.81126  -15.37663    1.56417
      H1     6.83373  -15.07109    0.69572
       H     5.96262  -17.36098    9.86250
       O     6.85550  -17.15300   10.12203
      H1     6.88289  -17.42277   11.06930
       H     4.16016  -17.40004    7.77703
       O     4.47540  -17.22438    8.68166
      H1     3.70908  -16.79099    9.11863
       H     9.60585  -17.55817    8.39785
       O     9.55123  -18.14180    9.20091
      H1     8.85269  -17.82059    9.76991
       H     4.20192  -17.51151    5.32523
       O     3.63587  -18.05298    5.89083
      H1     2.83904  -17.50504    5.85020
       H     7.92129  -13.81583    4.95372
       O     7.58853  -14.23571    5.78208
      H1     6.99680  -14.84361    5.32048
       H     6.43548  -17.06119    6.37094
       O     6.24072  -16.74500    5.50083
      H1     7.10816  -16.70046    5.05045
       H     3.44562  -13.78718    4.61206
       O     3.22810  -14.72750    4.60143
      H1     3.09782  -14.86014    3.61452
       H     6.89608  -14.38260    9.35013
       O     7.57596  -14.58320   10.09803
      H1     7.53929  -15.52888   10.17297
       H     8.39320  -17.95028    4.46817
       O     8.77068  -17.11176    4.59816
      H1     9.19762  -17.14748    5.48047
       H     9.95338  -15.81733    6.96228
       O    10.12334  -16.76327    6.95822
      H1    11.05994  -16.86833    7.22196
       H     6.51030  -14.02770    7.40191
       O     5.90099  -14.12903    8.17210
      H1     5.57928  -15.04691    8.20334

