51
frame 1 | Written by MDAnalysis XYZWriter (release 2.4.3)
       H    17.17927    5.33062   11.48151
       O    16.43034    5.94057   11.73759
      H1    15.78859    5.21944   12.04148
       H    18.63507   10.84875   11.84523
       O    18.94421   10.68208   12.81854
      H1    19.18166    9.72537   12.84966
       H    15.05728    9.47303    8.89911
       O    15.11556    8.91959    9.67534
      H1    14.26227    8.41312    9.52843
       H    14.68205    9.62748   11.46869
       O    14.47331   10.13094   12.23984
      H1    13.51737   10.00233   12.37712
       H    18.85069    9.32385    6.19226
       O    18.95399    8.47076    6.63869
      H1    18.05073    8.20496    6.94429
       H    15.66936   13.64100    9.12618
       O    16.06812   14.48028    8.77631
      H1    16.06395   15.14131    9.51698
       H    15.68084    7.15424    7.85536
       O    16.22730    7.53405    7.10295
      H1    15.69590    7.95087    6.44470
       H    17.87296   10.78184    8.64031
       O    17.90076   11.53513    8.04488
      H1    18.13725   11.18262    7.20042
       H    18.70159   14.11304   12.34133
       O    17.78882   13.76739   12.12182
      H1    17.45960   13.53855   12.97971
       H    17.27085   10.57291   13.69088
       O    16.37036   10.66921   14.08584
      H1    15.71518   10.25200   13.50348
       H    18.65127    7.75610   14.17947
       O    19.37242    7.96096   13.53939
      H1    20.06289    7.36259   13.85636
       H    16.16863   11.03781    7.84220
       O    15.28484   10.81236    7.68849
      H1    15.20930   10.77541    6.69092
       H    18.36017    9.30169    9.97399
       O    17.62739    9.89510   10.18465
      H1    16.84016    9.33484    9.97586
       H    16.12659    8.36099   13.84352
       O    16.32752    7.43561   14.06564
      H1    16.50486    7.01270   13.20360
       H    13.34423   13.01451   10.69954
       O    14.22201   13.02779   11.06971
      H1    14.39683   12.16349   11.39166
       H    14.45960    5.67402    9.30845
       O    15.41798    5.92059    9.33493
      H1    15.71830    5.98030   10.27276
       H    18.96437   12.66122    8.96318
       O    19.43299   13.28279    9.55028
      H1    18.92473   13.45215   10.33507

