51
frame 1 | Written by MDAnalysis XYZWriter (release 2.4.3)
       H    -7.38435   -4.98920   17.81734
       O    -7.54417   -4.53602   18.70066
      H1    -6.91962   -4.95555   19.34969
       H    -9.43103   -7.00779   18.43348
       O    -9.85997   -6.08958   18.51476
      H1    -9.20130   -5.49564   18.93858
       H    -7.42094   -4.20616   13.33388
       O    -6.63339   -4.51209   13.74275
      H1    -6.33078   -5.29356   13.21546
       H    -8.10025   -8.50312   15.45012
       O    -7.16151   -8.23915   15.35127
      H1    -6.61502   -9.02649   15.37492
       H    -0.46196   -3.19872   13.96572
       O    -1.16625   -2.60227   14.26304
      H1    -1.71961   -3.09175   14.80793
       H    -3.46669   -8.73238   16.27281
       O    -3.90776   -8.81316   17.11673
      H1    -3.14072   -8.93625   17.76862
       H    -8.92118   -9.28623   17.79404
       O    -8.41846   -8.48538   18.05729
      H1    -7.56505   -8.74057   18.46376
       H    -5.32555   -9.29484   18.06791
       O    -6.14471   -9.46954   18.60323
      H1    -6.67454  -10.27603   18.37542
       H    -1.54559   -4.93923   18.86340
       O    -2.41756   -4.92170   19.25508
      H1    -2.40255   -5.54696   20.01318
       H    -3.07039   -7.47940   14.78005
       O    -2.49987   -8.28523   14.88190
      H1    -1.72756   -7.95642   14.40026
       H    -1.17181   -7.52583   17.84619
       O    -1.31638   -8.43567   18.13093
      H1    -0.44768   -8.73560   17.79769
       H    -3.16214   -4.51859   15.94025
       O    -2.56655   -3.84592   16.20222
      H1    -3.02043   -3.24809   16.83888
       H    -1.28692   -5.32731   16.61897
       O    -0.61839   -5.97733   16.99420
      H1     0.17236   -5.92287   16.44683
       H    -7.12901   -5.09029   15.54043
       O    -7.26044   -5.63907   16.27646
      H1    -7.24291   -6.52523   15.93087
       H    -4.33884   -7.05385   17.77542
       O    -4.36273   -6.09552   17.82757
      H1    -3.51219   -5.84829   18.31082
       H    -3.39077   -1.20788   18.32454
       O    -3.78496   -1.90561   17.76106
      H1    -4.24456   -1.36076   17.06743
       H    -4.44180   -5.98464   14.33071
       O    -3.81505   -5.87872   15.00677
      H1    -4.30867   -5.96198   15.80492

