51
frame 2 | Written by MDAnalysis XYZWriter (release 2.4.3)
       H     9.21222    6.19370   12.20835
       O     8.82880    6.58450   11.40750
      H1     8.39477    7.41674   11.63620
       H    11.46360   13.13438   15.77586
       O    11.07818   12.49027   16.48050
      H1    10.97819   13.01275   17.31176
       H     9.62951   11.35399   16.82453
       O     8.85429   10.85946   17.10475
      H1     8.88661   10.08016   16.50550
       H    10.77760    9.64834   13.89184
       O    11.18855    9.89233   13.06108
      H1    10.88065    9.25135   12.39777
       H    12.38866   11.67130    7.88951
       O    11.48733   11.51444    8.10020
      H1    11.22057   12.16555    8.77585
       H     6.38974   15.16647   12.56555
       O     7.27417   15.57005   12.78384
      H1     7.76430   14.98425   13.40699
       H    13.98862   10.23967   11.09009
       O    13.68289   10.48958   11.99111
      H1    12.79370   10.04445   12.09692
       H    11.41215   14.83052   14.52893
       O    11.84013   13.94815   14.49119
      H1    12.13185   13.78307   13.56845
       H     9.91146    7.78883   15.03133
       O     9.60143    8.67014   15.03008
      H1     8.70691    8.58149   14.63825
       H     9.67563   14.36311   14.79138
       O     9.02050   13.82226   14.32311
      H1     8.57591   13.47480   15.06562
       H    12.29762    7.87353   11.95008
       O    11.68952    7.91639   11.18879
      H1    11.05374    7.19338   11.25790
       H     7.36996   12.09545   10.22253
       O     8.12534   11.50929   10.12599
      H1     8.67064   11.83810   10.83468
       H     9.73753   12.82933   12.98087
       O     9.80583   12.26252   12.12929
      H1    10.42601   11.55731   12.36628
       H     8.98068   10.49988    7.26754
       O     8.22718   10.13753    7.76693
      H1     8.16504   10.77127    8.52474
       H    11.14677   14.30030   10.05295
       O    11.29740   13.38470   10.17360
      H1    10.70416   13.09550   10.88332
       H     7.01898    9.48020   12.30234
       O     7.60912    9.18215   11.56195
      H1     7.86590    9.96269   11.09412
       H    12.44692   13.26512   11.64683
       O    13.11898   13.12639   12.34082
      H1    13.18138   12.15103   12.19957

