51
frame 1 | Written by MDAnalysis XYZWriter (release 2.4.3)
       H     8.94521  -11.23697   10.89047
       O     9.52818  -11.94522   11.15608
      H1     8.97168  -12.64503   11.55728
       H    11.50897  -18.65333   12.02100
       O    11.98145  -19.22322   11.41982
      H1    11.73411  -18.84189   10.59369
       H     6.82425  -18.61773   12.30694
       O     7.22875  -19.02448   11.48962
      H1     7.31633  -19.97961   11.58845
       H     6.85881  -18.53791   17.97091
       O     7.62539  -18.28365   17.42410
      H1     7.38001  -17.52420   16.82415
       H     8.87380  -14.06684   14.27241
       O     9.58908  -14.66600   14.54699
      H1     9.09756  -15.34853   15.00669
       H    13.44503  -17.46053   15.03475
       O    13.31428  -17.86911   15.89214
      H1    12.48466  -17.53808   16.33072
       H    12.69391  -14.38005   15.54099
       O    11.84286  -14.42205   15.96087
      H1    11.06056  -14.45903   15.32347
       H    10.15425  -15.85905   13.15652
       O    10.41151  -16.76828   12.94113
      H1     9.86220  -17.30888   13.46753
       H     6.89374  -17.50385    8.72962
       O     7.56879  -17.48678    9.46187
      H1     7.30139  -18.01165   10.23619
       H     7.02125  -16.73711   14.91720
       O     7.26123  -16.15942   15.67188
      H1     6.52791  -15.62354   15.97854
       H     7.51122  -12.27816   13.15882
       O     7.77957  -13.16042   12.80798
      H1     7.04957  -13.55502   12.23513
       H    11.06614  -17.03993   17.92791
       O    11.14691  -16.84185   17.02034
      H1    11.33436  -15.89339   16.83210
       H    14.34469  -16.54613   11.01597
       O    14.14968  -15.96328   10.18925
      H1    15.06260  -15.83975    9.83022
       H     8.58946  -19.09488   14.99538
       O     9.36964  -18.53854   14.87794
      H1     9.50587  -18.18958   15.78493
       H    12.89321  -17.38900   12.56791
       O    13.69312  -17.05324   12.89341
      H1    13.66110  -16.12218   12.99661
       H     6.67176  -15.10680    8.72571
       O     7.24240  -14.87518    9.50960
      H1     7.62435  -15.71172    9.69287
       H     6.01069  -18.27853   14.19502
       O     6.37750  -17.53847   13.63301
      H1     5.66954  -16.87442   13.44801

