51
frame 1 | Written by MDAnalysis XYZWriter (release 2.4.3)
       H   -10.28001  -15.62779  -16.35126
       O   -10.71969  -14.86892  -15.98311
      H1    -9.94892  -14.42853  -15.53082
       H    -6.62295  -16.69315  -15.24347
       O    -7.13577  -17.28576  -14.63337
      H1    -6.73930  -18.16532  -14.78570
       H    -4.87722  -12.12547  -16.09617
       O    -4.53564  -12.80621  -15.51915
      H1    -3.81149  -13.13135  -16.15363
       H    -4.23011  -18.35098  -15.27233
       O    -3.85893  -17.45806  -15.50083
      H1    -3.57027  -17.04960  -14.63693
       H    -6.21285  -15.90373  -11.43812
       O    -6.17616  -14.92985  -11.30916
      H1    -6.27096  -14.52907  -12.21978
       H    -4.71090   -9.61882  -15.91520
       O    -5.20486   -9.78010  -16.72017
      H1    -5.96165   -9.19964  -16.94468
       H    -5.56803  -14.40436  -15.91022
       O    -6.14004  -15.20611  -16.12446
      H1    -6.85519  -14.80860  -16.63314
       H    -8.08887  -13.25250  -14.26954
       O    -8.84506  -13.22849  -14.87619
      H1    -8.69996  -12.51436  -15.50555
       H    -2.47892  -15.48241  -12.62671
       O    -3.03835  -16.11325  -13.10922
      H1    -3.50140  -16.46077  -12.34706
       H    -5.93214  -12.59176  -13.93683
       O    -6.59058  -12.76795  -13.27474
      H1    -6.79790  -11.91224  -12.89537
       H    -1.76631  -12.81355  -17.45012
       O    -2.37697  -13.45899  -17.01539
      H1    -2.72323  -14.01965  -17.70201
       H    -6.32370  -12.46671  -18.75564
       O    -6.85804  -12.50282  -17.91666
      H1    -6.55929  -11.68495  -17.45851
       H    -1.80621  -16.49697  -17.67270
       O    -2.73159  -16.73252  -17.97072
      H1    -3.25782  -17.00089  -17.15146
       H    -8.21670  -17.49235  -17.93367
       O    -8.47588  -16.73609  -17.36646
      H1    -8.07879  -16.92106  -16.50707
       H    -2.82759  -14.92127  -20.23141
       O    -3.30206  -14.63564  -19.41478
      H1    -3.20977  -15.36574  -18.78898
       H    -3.20869  -12.69604  -14.13757
       O    -2.43874  -12.41563  -13.60825
      H1    -2.89758  -11.78333  -12.95689
       H    -8.23721  -11.77535  -17.25863
       O    -9.03716  -11.22390  -17.07967
      H1    -8.81838  -10.32621  -16.69092

