51
frame 1 | Written by MDAnalysis XYZWriter (release 2.4.3)
       H    17.61649  -11.89281  -16.79059
       O    18.58355  -12.04229  -16.59976
      H1    18.64289  -11.26560  -16.03101
       H    16.50119   -7.74753  -18.20588
       O    17.27081   -7.64656  -18.77388
      H1    17.99563   -7.26546  -18.12375
       H    15.63324  -14.77737  -15.55293
       O    15.57882  -13.91989  -15.17998
      H1    15.34201  -14.09889  -14.24865
       H    18.77010  -13.18744  -15.27579
       O    18.95412  -13.80547  -14.53487
      H1    19.78881  -13.48443  -14.14093
       H    12.48060   -8.21192  -16.92083
       O    13.11083   -8.90811  -17.22461
      H1    13.34598   -8.58890  -18.12136
       H    18.73125  -14.14362  -19.42517
       O    19.67806  -14.25334  -19.32000
      H1    20.05807  -13.71246  -20.00942
       H    16.75978  -13.16195  -18.66574
       O    16.80167  -13.89882  -19.32160
      H1    16.38152  -14.57633  -18.79216
       H    15.14313  -11.24158  -17.77442
       O    16.12865  -11.37256  -17.68776
      H1    16.61548  -10.99848  -18.41854
       H    18.72009   -9.25652  -14.57733
       O    19.04618   -9.54571  -15.46288
      H1    18.84389   -8.78800  -16.06074
       H    17.78295   -9.43661  -19.31142
       O    17.81528  -10.38675  -19.59248
      H1    18.70085  -10.70230  -19.38459
       H    15.50251   -8.34989  -15.19156
       O    15.35608   -9.00048  -14.43508
      H1    15.02216   -9.80617  -14.87582
       H    13.27587  -11.15268  -15.09115
       O    14.22980  -11.31072  -14.92736
      H1    14.40679  -12.23754  -15.07326
       H    19.35935  -14.99179  -15.83032
       O    19.81051  -15.49551  -16.54276
      H1    19.89830  -14.93482  -17.28939
       H    14.60313   -7.98387  -16.90153
       O    15.38538   -7.53869  -16.73246
      H1    15.16598   -6.59965  -16.88197
       H    10.90785  -10.69229  -15.71658
       O    11.72596  -11.12652  -16.09783
      H1    12.17166  -10.33615  -16.49235
       H    15.08400  -16.17299  -17.04641
       O    15.20633  -15.88082  -18.00667
      H1    15.56031  -16.69684  -18.40767
       H    19.82836   -6.18296  -16.76280
       O    19.35475   -7.01901  -17.00098
      H1    20.01978   -7.42082  -17.59231

