51
frame 1 | Written by MDAnalysis XYZWriter (release 2.4.3)
       H     8.73121   17.56215   11.93395
       O     8.12420   17.40256   11.14814
      H1     7.67911   16.59834   11.40885
       H     5.76563   18.53326   14.58404
       O     5.35254   19.40693   14.43977
      H1     4.53911   19.40188   14.95726
       H     4.54381   13.81186   14.36675
       O     5.03023   13.04035   14.12658
      H1     4.97771   13.03351   13.20476
       H     0.81998   19.27017   12.17780
       O     1.60022   19.19434   12.67683
      H1     1.95120   18.31738   12.68215
       H     2.98932   18.50167    7.13205
       O     2.89552   17.98642    8.00667
      H1     2.01716   18.35930    8.40002
       H     4.25101   18.79571    9.21771
       O     4.77548   19.47080    9.70480
      H1     4.71471   20.31201    9.24411
       H     2.69100   16.07962   12.10550
       O     1.97311   16.41572   12.64554
      H1     1.14465   16.06545   12.25247
       H     4.70550   16.55420   11.59110
       O     4.89191   15.58615   11.62157
      H1     5.24903   15.32725   10.74385
       H     6.42906   15.21030   12.52480
       O     7.29938   15.39718   12.88113
      H1     7.48691   14.54027   13.25728
       H     7.70707   19.60461    7.50441
       O     6.76517   19.44414    7.47914
      H1     6.42183   19.42270    8.36496
       H     3.68528   17.38817   16.37708
       O     3.27469   18.17765   15.97592
      H1     2.62259   17.83394   15.34760
       H     5.49728   13.25837   11.10516
       O     5.43261   12.38015   11.42815
      H1     4.48894   12.21774   11.28387
       H     1.33753   14.49981   10.66893
       O     2.30213   14.27809   10.52856
      H1     2.44379   14.74215    9.68584
       H     6.92440   16.51859   14.14910
       O     6.61308   17.09562   14.94440
      H1     6.00155   16.51538   15.45176
       H     6.71569   15.26137    8.96461
       O     5.91510   14.86287    9.32488
      H1     5.45551   14.71883    8.55248
       H     4.94879   18.47461   12.78620
       O     4.56973   18.14201   11.94530
      H1     4.74421   18.82222   11.29451
       H     2.65535   15.35474   14.11380
       O     3.19064   15.06070   14.83603
      H1     2.69271   14.90931   15.65745

