51
frame 1 | Written by MDAnalysis XYZWriter (release 2.4.3)
       H    14.97934    4.80886    2.08847
       O    15.20267    4.33601    1.25288
      H1    15.24888    3.40532    1.52107
       H    18.50499    0.17437    2.60344
       O    18.77482    0.85353    1.96192
      H1    19.43314    1.39420    2.40258
       H    13.31729    1.50094    5.81464
       O    13.72064    1.79290    5.00396
      H1    13.56911    2.71749    5.09590
       H    15.64416    0.94575    2.24855
       O    16.10281    1.61223    1.79599
      H1    17.05178    1.33700    1.89303
       H    15.79369   -0.65872   -2.63821
       O    16.45872   -1.00233   -2.01119
      H1    16.94814   -0.22043   -1.70412
       H    15.47852    1.36234    0.40154
       O    15.09397    1.52066   -0.50103
      H1    15.64479    2.21862   -0.90957
       H    17.68075   -0.04322    4.90776
       O    18.15845   -0.87015    4.67986
      H1    17.76826   -1.20021    3.89920
       H    16.92611   -2.28900    5.56162
       O    16.92661   -3.26011    5.79336
      H1    17.69493   -3.35324    6.39234
       H    14.78350   -3.92783    0.85752
       O    14.72524   -2.92158    0.90977
      H1    15.13346   -2.68761    0.08463
       H    13.39173    1.02341   -0.91035
       O    12.45904    1.14977   -1.22736
      H1    12.07207    0.28394   -1.09640
       H    11.42511    1.09161    2.30924
       O    10.58103    1.40714    1.98238
      H1    10.59328    2.39599    2.01762
       H    12.28754   -1.50403    2.98841
       O    12.41594   -0.54476    3.02416
      H1    12.22121   -0.14903    3.89936
       H    19.16397    1.15792   -0.80593
       O    18.43838    1.15718   -1.40809
      H1    18.42789    2.04145   -1.82446
       H    15.42876   -1.30576    2.28862
       O    15.03598   -0.60282    2.85569
      H1    14.10751   -0.82676    2.85364
       H    17.91213   -1.13473    1.56826
       O    17.60709   -1.78962    2.22453
      H1    18.36556   -2.33108    2.47917
       H    17.58199    4.37513    0.74348
       O    18.12249    4.70664    1.48188
      H1    17.45125    4.72777    2.18108
       H    16.74746    1.96893    5.78998
       O    16.51207    1.02085    5.77153
      H1    15.69055    1.04304    5.27910

