51
frame 2 | Written by MDAnalysis XYZWriter (release 2.4.3)
       H    -1.71867  -16.33277  -10.51793
       O    -2.67108  -16.27944  -10.29739
      H1    -2.75435  -15.33999  -10.40869
       H     0.68629  -11.84506   -6.62348
       O     0.11390  -12.39833   -7.15642
      H1    -0.42586  -12.96335   -6.55831
       H    -1.87558  -14.44857   -5.09093
       O    -1.65587  -13.55874   -5.32020
      H1    -2.06330  -12.94134   -4.73009
       H     0.04199  -13.31437   -4.39581
       O     0.86350  -12.90233   -4.16367
      H1     0.49532  -12.36320   -3.42647
       H    -6.14921  -14.99040   -7.19576
       O    -6.90796  -15.51360   -7.54721
      H1    -7.31105  -15.07957   -8.28998
       H    -3.22251  -11.15315   -2.90740
       O    -2.78297  -11.21102   -3.79236
      H1    -2.88126  -10.34661   -4.18822
       H    -4.24134  -13.78349   -6.59700
       O    -4.54562  -14.65834   -6.32612
      H1    -4.74129  -14.61366   -5.38126
       H    -4.18636  -13.52261  -10.36832
       O    -3.32240  -13.13108  -10.15228
      H1    -3.44225  -12.85324   -9.21934
       H    -0.92516  -11.06019  -10.31278
       O     0.01470  -11.29048  -10.10167
      H1     0.11192  -12.22619  -10.13523
       H    -2.51493  -15.49076   -6.64149
       O    -1.82919  -16.14291   -6.39551
      H1    -1.10328  -15.82636   -6.88349
       H    -3.03246  -12.16604   -7.12745
       O    -3.85610  -12.47637   -7.51601
      H1    -4.47140  -11.72072   -7.54410
       H    -0.87200  -10.83516   -8.01544
       O    -1.70948  -10.39305   -7.76376
      H1    -1.73107  -10.16668   -6.81348
       H    -3.30954  -10.04662  -11.13417
       O    -2.52003  -10.71253  -11.11906
      H1    -2.96253  -11.55047  -10.87175
       H    -1.55301   -8.30949   -5.55794
       O    -2.17723   -8.66812   -4.97450
      H1    -2.81672   -7.92820   -4.87678
       H    -6.25752  -10.54599   -6.82295
       O    -5.64050  -10.48813   -7.54466
      H1    -6.07335  -10.95304   -8.26247
       H    -1.62828   -7.56257   -9.93058
       O    -2.28588   -7.71848   -9.20002
      H1    -2.06172   -8.63260   -8.91892
       H    -6.62072  -13.05591  -10.09137
       O    -6.66196  -12.22359   -9.62645
      H1    -7.37383  -12.35227   -8.98570

