51
frame 2 | Written by MDAnalysis XYZWriter (release 2.4.3)
       H    10.96925   10.29489  -15.54337
       O    11.33604   11.16822  -15.16930
      H1    12.23363   10.85467  -14.79572
       H    15.57953   14.24869  -16.40012
       O    15.35083   14.10672  -15.47454
      H1    14.85608   13.26799  -15.38506
       H    13.25572   12.80761  -11.20611
       O    13.75487   13.11679  -11.97785
      H1    13.43393   14.03857  -12.03807
       H    15.78611   12.51353  -11.70385
       O    16.66589   12.26056  -11.42527
      H1    16.86557   12.87868  -10.70674
       H    14.70298   10.24145   -9.44981
       O    14.70960    9.42948   -9.98573
      H1    14.15504    8.85809   -9.44875
       H    13.36327   12.36100   -9.42122
       O    14.07161   12.19275   -8.83098
      H1    14.78235   12.78167   -9.09516
       H    11.91181   10.78230  -10.97252
       O    11.92383   11.56619  -10.34027
      H1    11.61248   11.08481   -9.48552
       H    17.38427   13.28181  -15.56722
       O    18.33700   13.46642  -15.43561
      H1    18.80765   13.09790  -16.20322
       H    12.44156    8.95387  -11.79363
       O    11.54373    9.36837  -11.90401
      H1    10.96787    9.07148  -11.19778
       H    14.43503    9.39781  -15.94579
       O    15.11538   10.04816  -15.89831
      H1    15.22233   10.58492  -16.72148
       H    14.30805   11.20868  -14.76645
       O    13.78651   12.03655  -14.48718
      H1    13.86050   12.11969  -13.49585
       H    14.11954   15.03656  -14.50203
       O    13.37263   15.56956  -14.15517
      H1    12.79718   15.59827  -14.96836
       H    14.04314    7.32493  -11.41808
       O    14.27727    7.85239  -12.19848
      H1    14.82393    8.55992  -11.77656
       H    10.13046   11.85141  -13.78606
       O     9.33239   11.72900  -13.18942
      H1     9.44861   10.87004  -12.78666
       H    10.80053   16.46763  -12.10763
       O    11.45353   15.77502  -12.13036
      H1    11.87938   15.68477  -12.97121
       H    11.07198   13.27136  -17.21740
       O    11.95827   13.24824  -16.82282
      H1    11.95691   12.64415  -16.11823
       H    16.63182   10.51461  -12.97771
       O    16.56632    9.65094  -13.41325
      H1    16.18669    9.70086  -14.29790

