51
frame 3 | Written by MDAnalysis XYZWriter (release 2.4.3)
       H    -9.02596   -4.55634  -16.33833
       O    -9.45735   -5.26599  -16.86849
      H1    -9.84623   -4.87015  -17.64974
       H   -11.04027   -3.47683  -19.50377
       O   -10.77807   -4.38645  -19.39001
      H1    -9.93411   -4.62696  -19.86141
       H   -15.02503   -7.40051  -16.84192
       O   -16.00742   -7.30490  -16.90593
      H1   -16.40414   -7.48867  -17.75045
       H   -10.55735   -7.57853  -18.88449
       O    -9.74903   -7.45012  -19.34395
      H1    -9.18314   -7.18293  -18.65393
       H   -14.65890   -9.93613  -16.54134
       O   -13.94960   -9.49698  -16.00357
      H1   -13.66116  -10.18195  -15.41230
       H   -11.14685   -6.55875  -14.77981
       O   -11.36346   -5.63793  -14.97583
      H1   -10.78851   -5.25459  -15.66080
       H   -12.39021   -9.28849  -17.31196
       O   -11.49613   -9.04488  -17.53531
      H1   -11.01504   -9.89029  -17.64998
       H   -15.20460   -5.78367  -14.67312
       O   -15.90844   -5.80647  -14.03077
      H1   -16.00797   -6.68494  -13.69822
       H   -10.94958   -3.39111  -12.63045
       O   -10.40147   -3.79904  -13.30430
      H1   -10.89299   -4.50923  -13.69140
       H   -13.90771   -4.48846  -18.74717
       O   -14.49474   -3.67119  -18.90198
      H1   -14.39769   -3.65461  -19.82755
       H   -13.96754   -4.78140  -16.54634
       O   -13.68104   -5.65714  -16.35133
      H1   -12.91759   -5.62717  -15.73020
       H   -13.10846   -8.40158  -11.79696
       O   -12.97576   -7.49001  -12.14755
      H1   -12.39692   -7.67864  -12.92804
       H   -17.79460   -4.68443  -16.73081
       O   -17.42896   -4.97132  -17.57381
      H1   -16.70609   -5.55704  -17.32219
       H   -14.95829   -2.49061  -15.01920
       O   -14.09644   -2.84833  -15.11461
      H1   -13.76147   -3.07362  -14.23346
       H   -12.42704   -1.03529  -18.24284
       O   -12.48523   -1.06069  -17.27922
      H1   -13.16097   -1.72141  -17.13826
       H   -13.07772   -5.87033  -17.99863
       O   -12.79858   -6.06861  -18.92945
      H1   -11.98659   -5.60154  -18.92262
       H   -10.78586   -8.42198  -15.63283
       O   -10.95127   -8.15798  -14.69320
      H1   -10.36165   -8.65688  -14.08171

