51
frame 2 | Written by MDAnalysis XYZWriter (release 2.4.3)
       H    15.57953   14.24869  -16.40012
       O    15.35083   14.10672  -15.47454
      H1    14.85608   13.26799  -15.38506
       H    16.68539   16.65768  -12.54143
       O    16.92103   16.94181  -11.62028
      H1    16.56745   16.31043  -10.96930
       H    13.25572   12.80761  -11.20611
       O    13.75487   13.11679  -11.97785
      H1    13.43393   14.03857  -12.03807
       H    15.78611   12.51353  -11.70385
       O    16.66589   12.26056  -11.42527
      H1    16.86557   12.87868  -10.70674
       H    14.70298   10.24145   -9.44981
       O    14.70960    9.42948   -9.98573
      H1    14.15504    8.85809   -9.44875
       H    13.36327   12.36100   -9.42122
       O    14.07161   12.19275   -8.83098
      H1    14.78235   12.78167   -9.09516
       H    19.36317   10.47573   -8.65027
       O    19.80533    9.82485   -9.20918
      H1    19.18286    9.27517   -9.75657
       H    17.38427   13.28181  -15.56722
       O    18.33700   13.46642  -15.43561
      H1    18.80765   13.09790  -16.20322
       H    18.65303   11.35344   -6.50163
       O    18.18587   11.21300   -7.33072
      H1    17.54983   10.49874   -7.18739
       H    14.30805   11.20868  -14.76645
       O    13.78651   12.03655  -14.48718
      H1    13.86050   12.11969  -13.49585
       H    18.10544   12.47927   -8.43832
       O    17.84979   13.09028   -9.11423
      H1    18.62153   13.51680   -9.46155
       H    14.04314    7.32493  -11.41808
       O    14.27727    7.85239  -12.19848
      H1    14.82393    8.55992  -11.77656
       H    14.50220   15.50351   -9.82108
       O    15.36778   15.13512   -9.73422
      H1    15.66740   15.48325   -8.89361
       H    19.26751   15.33217  -11.29972
       O    19.57948   15.02357  -10.42051
      H1    19.14419   15.62829   -9.80186
       H    16.16009    8.72137  -10.21861
       O    16.92592    8.30321  -10.60853
      H1    16.90611    8.18685  -11.55858
       H    19.79245   11.73222  -12.01500
       O    19.31498   11.80301  -12.81202
      H1    18.41292   11.89639  -12.58411
       H    16.63182   10.51461  -12.97771
       O    16.56632    9.65094  -13.41325
      H1    16.18669    9.70086  -14.29790

