51
frame 2 | Written by MDAnalysis XYZWriter (release 2.4.3)
       H    -8.13690   -8.05894  -17.15499
       O    -8.27744   -8.87842  -17.65872
      H1    -7.97509   -8.59947  -18.52181
       H   -11.75748  -13.04747  -16.20069
       O   -12.06612  -13.64771  -15.47179
      H1   -11.15099  -13.90566  -15.09951
       H    -8.25109  -14.95787  -15.36178
       O    -8.85520  -14.77228  -14.61741
      H1    -8.78172  -13.81707  -14.44663
       H   -11.36910  -10.97052  -17.96388
       O   -11.99471  -11.52893  -18.34744
      H1   -12.06022  -11.19633  -19.23972
       H    -4.75844  -11.55984  -15.73784
       O    -4.25963  -12.37374  -15.37962
      H1    -3.78703  -12.83481  -16.12569
       H   -11.90647  -14.76255  -19.30066
       O   -11.58869  -13.93796  -19.70540
      H1   -11.57620  -13.26836  -19.04557
       H    -4.91273   -9.36726  -15.09062
       O    -5.47859   -9.89132  -15.71013
      H1    -6.22741   -9.26760  -15.68602
       H    -5.18584  -15.30110  -15.57700
       O    -6.03043  -14.95083  -15.70698
      H1    -5.90153  -14.03113  -15.43997
       H    -7.73093  -12.09160  -14.00291
       O    -8.63866  -12.01440  -14.34525
      H1    -8.56498  -11.66340  -15.24688
       H   -11.53195   -8.39595  -18.09499
       O   -10.70613   -8.19480  -18.56169
      H1    -9.96719   -8.50657  -17.97204
       H    -5.34476  -12.84457  -13.74240
       O    -6.08862  -12.88289  -13.09754
      H1    -6.08615  -12.00909  -12.65227
       H    -4.16859  -10.50389  -18.10108
       O    -3.37724  -10.01139  -17.81602
      H1    -3.67437   -9.86587  -16.87768
       H    -5.82646  -12.12692  -19.09893
       O    -5.97553  -11.37742  -18.51308
      H1    -6.18054  -10.60530  -19.08813
       H    -9.19489  -16.11686  -18.93180
       O    -9.65490  -16.06756  -19.77941
      H1    -9.99444  -15.18824  -19.86934
       H    -5.64531  -16.75499  -19.35330
       O    -5.70619  -15.88541  -18.89760
      H1    -5.22584  -15.79276  -18.04311
       H    -7.63411  -11.73678  -17.61572
       O    -8.37161  -11.47140  -17.06964
      H1    -8.33314  -10.48302  -17.21287
       H   -10.75591   -9.32766  -14.86310
       O   -10.11171   -8.61265  -15.08645
      H1    -9.52443   -8.64694  -14.30446

