51
frame 2 | Written by MDAnalysis XYZWriter (release 2.4.3)
       H   -15.15243   -1.22294  -11.19703
       O   -14.35462   -1.55527  -10.72489
      H1   -14.33256   -2.45095  -11.17438
       H   -12.15873   -6.21373  -10.49207
       O   -12.68516   -5.46357  -10.17176
      H1   -12.05503   -4.73963   -9.95982
       H   -13.74804   -9.36267  -10.78597
       O   -14.28443   -9.57534  -11.56565
      H1   -15.18721   -9.30413  -11.35994
       H   -15.42770   -5.54532   -8.18444
       O   -16.20600   -5.04243   -8.35533
      H1   -16.01745   -4.13864   -8.18553
       H   -12.59642   -9.39048   -8.71791
       O   -12.92739   -8.65389   -9.29076
      H1   -13.38790   -8.00873   -8.70895
       H   -11.36038   -7.29081   -7.32252
       O   -10.39464   -7.25830   -7.28634
      H1   -10.12330   -8.20545   -7.27237
       H   -12.03567   -5.17164  -14.00501
       O   -11.83919   -4.31410  -14.42931
      H1   -11.14855   -4.50023  -15.11874
       H   -11.57799   -8.18999  -10.63333
       O   -11.03531   -7.56357  -11.13311
      H1   -11.37223   -7.75397  -12.06794
       H    -8.06691   -7.44376  -10.75766
       O    -7.31226   -6.87927  -10.48706
      H1    -6.49139   -7.32943  -10.73656
       H   -10.32128   -2.36285  -12.57883
       O    -9.90946   -3.14297  -12.98375
      H1   -10.63233   -3.59225  -13.45249
       H   -13.18734   -6.08653   -8.57808
       O   -13.66783   -6.31903   -7.77950
      H1   -13.28450   -5.71568   -7.07786
       H   -11.23054  -10.82060  -10.94895
       O   -11.50110  -11.10718  -10.02901
      H1   -12.21971  -11.73982  -10.03754
       H   -12.90169   -7.54919  -14.15831
       O   -12.14759   -7.15992  -13.75278
      H1   -11.51675   -7.68434  -14.21212
       H   -10.70741   -2.84144   -9.02679
       O   -11.68303   -3.07717   -9.03609
      H1   -12.06625   -2.26862   -8.61493
       H    -8.43747   -4.03428  -11.87422
       O    -7.55894   -4.43116  -11.81552
      H1    -7.68530   -5.05341  -11.05333
       H   -12.49965   -3.80162   -6.75669
       O   -12.04106   -4.50957   -6.25951
      H1   -11.12173   -4.54181   -6.67607
       H   -14.64178   -4.58317  -12.93981
       O   -14.67270   -4.32078  -12.01910
      H1   -13.91921   -4.74918  -11.57241

