51
frame 2 | Written by MDAnalysis XYZWriter (release 2.4.3)
       H     6.82484   14.50191   -2.65738
       O     6.30748   13.79094   -2.97318
      H1     6.94398   13.38169   -3.56885
       H     7.08584   13.66042   -6.37832
       O     7.69384   13.31681   -5.65111
      H1     7.54926   12.35808   -5.58664
       H     8.02536   10.30481   -5.56361
       O     7.38807   10.55150   -4.88453
      H1     6.63312    9.99116   -5.01677
       H     8.26072    9.14282   -1.73823
       O     7.46826    9.22681   -2.27318
      H1     7.64576    9.68908   -3.18059
       H    10.36463   13.00086  -10.39633
       O     9.50907   13.18087  -10.83927
      H1     9.49533   12.47810  -11.61519
       H    11.91181   10.78230  -10.97252
       O    11.92383   11.56619  -10.34027
      H1    11.61248   11.08481   -9.48552
       H    10.90820   16.42300   -5.58842
       O    11.44213   16.01985   -6.26661
      H1    11.60521   15.12769   -5.93804
       H    10.44577   15.80308   -7.80653
       O     9.66459   15.66255   -8.39766
      H1     9.88918   16.24640   -9.15030
       H     5.89218   15.98301   -8.72056
       O     6.66936   15.97397   -9.28574
      H1     7.29787   15.36378   -8.94135
       H    11.60561    9.85559   -7.40599
       O    11.12047   10.29054   -8.10652
      H1    10.62395   10.99066   -7.67657
       H     9.50454   12.53073   -6.21923
       O    10.35041   12.39307   -6.63655
      H1    11.02660   12.73662   -6.00748
       H     7.94747   12.95483  -10.20499
       O     7.03604   12.84440   -9.92175
      H1     6.61566   13.47793  -10.50597
       H     9.34465    8.74054   -6.40762
       O     8.59283    9.02269   -6.93592
      H1     8.00267    8.23132   -6.99896
       H    10.85343   15.58569   -3.07288
       O    11.29621   14.83717   -2.73315
      H1    10.85072   14.52783   -1.92357
       H    12.76467    9.56547   -5.11610
       O    13.37707    9.35052   -5.80995
      H1    13.67756    8.47716   -5.64208
       H     6.22190   13.35672   -8.40349
       O     5.81223   13.23532   -7.51342
      H1     5.54902   12.32511   -7.55391
       H    13.15309   12.94414   -5.04977
       O    12.44508   13.58728   -5.06173
      H1    12.09442   13.69884   -4.13472

