51
frame 2 | Written by MDAnalysis XYZWriter (release 2.4.3)
       H    -0.75130  -18.32246   18.84039
       O     0.15366  -18.60289   19.10230
      H1     0.74205  -18.52477   18.33029
       H    -5.96342  -18.08332   13.29599
       O    -5.44412  -18.77041   12.89845
      H1    -4.52792  -18.64892   13.06609
       H    -4.46680  -15.60968   15.02750
       O    -4.35154  -16.28132   14.38311
      H1    -4.49047  -15.90762   13.51311
       H    -1.21822  -16.49078   14.79303
       O    -1.85164  -17.20667   14.59471
      H1    -2.73628  -16.82030   14.45512
       H    -1.67904  -15.52529   17.54762
       O    -2.46321  -15.85759   17.19728
      H1    -2.20224  -16.26935   16.38836
       H     0.09270  -13.41516   18.71965
       O    -0.04200  -12.42403   18.59087
      H1     0.41395  -12.32411   17.74450
       H    -2.52559  -12.14889   12.69178
       O    -2.47622  -12.92495   13.28992
      H1    -3.34399  -13.30256   13.25582
       H    -4.07485  -12.55957   15.77665
       O    -3.60854  -11.71299   15.67275
      H1    -3.11148  -11.84615   14.88167
       H    -2.17908  -17.23832   20.16327
       O    -2.51636  -17.68229   19.31685
      H1    -2.54250  -17.00674   18.68832
       H     0.24701  -15.79198   19.29967
       O     0.10913  -15.40374   18.45257
      H1     0.83710  -15.75818   17.92087
       H    -0.87390  -13.85049   13.15614
       O    -0.33907  -14.65041   13.25170
      H1    -0.51390  -15.23240   12.53065
       H     1.97358  -17.17843   16.19318
       O     1.94847  -16.23551   16.08161
      H1     2.32722  -16.02449   15.21944
       H    -5.21174  -14.30926   19.73456
       O    -5.31030  -13.54160   19.13122
      H1    -4.43039  -13.14568   19.15151
       H    -4.89173  -13.88678   17.41642
       O    -5.15250  -13.78582   16.48588
      H1    -6.04974  -14.08358   16.50043
       H    -2.04098  -18.71494   13.16361
       O    -2.62563  -19.14578   12.53080
      H1    -2.61845  -20.08449   12.73258
       H    -0.39918  -19.82332   14.96775
       O    -1.04499  -19.96722   15.67253
      H1    -1.72880  -19.25875   15.71079
       H     1.58850  -13.39764   15.75777
       O     1.34048  -12.58619   16.24086
      H1     2.10528  -12.04355   16.29628

