51
frame 0 | Written by MDAnalysis XYZWriter (release 2.4.3)
       H     6.49076  -16.40067  -11.07166
       O     5.57272  -16.58302  -10.99427
      H1     5.12184  -16.21801  -11.76932
       H     5.32863  -16.24416  -14.89050
       O     6.13766  -15.73747  -14.66907
      H1     6.68108  -15.69081  -15.45547
       H     6.12169  -13.00086  -11.08241
       O     6.16217  -13.21154  -12.01816
      H1     7.07518  -13.39686  -12.24620
       H     8.26187  -17.03461   -9.03375
       O     8.86937  -16.35846   -9.33942
      H1     8.63078  -15.95752  -10.19720
       H     8.72953  -11.28885  -14.07678
       O     9.17966  -11.30573  -14.98991
      H1     8.90348  -10.48265  -15.41608
       H     4.71188  -13.71760   -8.69506
       O     5.06034  -13.10630   -9.41982
      H1     5.31789  -12.23500   -9.06168
       H     6.55876  -14.18608   -8.99247
       O     7.26456  -14.50269   -8.38229
      H1     7.74572  -15.15776   -8.86177
       H     7.87174  -11.38705   -8.04243
       O     8.71828  -11.65966   -7.57299
      H1     9.12670  -12.18711   -8.24249
       H     3.61295  -14.96162  -13.55350
       O     3.47437  -15.48017  -12.73744
      H1     2.55719  -15.77868  -12.82578
       H     2.96933  -11.88632  -11.86707
       O     2.19310  -11.99126  -11.27530
      H1     2.55261  -11.89449  -10.39691
       H     5.59530  -10.07687  -14.93928
       O     5.30545  -10.75271  -15.56119
      H1     4.90144  -11.33991  -14.83008
       H     5.81415  -11.02313   -7.67579
       O     6.26086  -11.00560   -8.49798
      H1     6.36526  -10.08877   -8.73032
       H     4.97588  -15.90403   -9.18897
       O     4.69240  -15.58708   -8.31362
      H1     5.51860  -15.22259   -8.05386
       H     9.39436  -13.95931  -12.08673
       O     9.23102  -13.01973  -12.30052
      H1    10.05318  -12.55873  -12.10796
       H     8.16223   -9.50249  -12.25507
       O     7.61332  -10.17477  -12.80247
      H1     7.36485  -10.81572  -12.12328
       H     3.17647  -12.79635  -13.86593
       O     3.92291  -12.23096  -13.53976
      H1     4.59143  -12.79409  -13.12007
       H     7.70913  -15.28788  -12.73652
       O     8.22580  -15.50930  -11.98510
      H1     8.55529  -16.39669  -12.18059

