51
frame 2 | Written by MDAnalysis XYZWriter (release 2.4.3)
       H    11.09961   16.49981  -15.79071
       O    11.85139   16.09071  -16.25312
      H1    11.59438   15.17593  -16.33774
       H    15.57953   14.24869  -16.40012
       O    15.35083   14.10672  -15.47454
      H1    14.85608   13.26799  -15.38506
       H     8.27620   18.12254  -18.18359
       O     7.71959   18.85281  -18.44782
      H1     8.34176   19.51600  -18.87429
       H    16.96803   16.42045  -15.61011
       O    16.72865   17.07299  -16.35249
      H1    15.83065   17.34608  -16.28730
       H     9.52723   18.34305  -15.13240
       O     9.79460   17.45386  -15.22955
      H1     9.56951   16.99124  -14.41659
       H     7.21574   14.79068  -16.11152
       O     8.07447   15.18145  -15.94031
      H1     8.18015   16.01617  -16.43166
       H     8.57552   15.98459  -19.00597
       O     9.18014   16.37459  -18.39895
      H1     9.92725   16.53029  -18.97345
       H    15.19165   16.97393  -20.24487
       O    15.44508   16.94929  -19.33394
      H1    14.84406   17.49833  -18.86379
       H     6.22473   13.47896  -17.84235
       O     6.74781   13.66609  -18.66361
      H1     7.65270   13.52034  -18.37018
       H     9.99606   13.70312  -19.07471
       O     9.63884   13.75916  -18.20472
      H1     9.39376   14.72377  -17.92283
       H    11.73462   17.56508  -18.13775
       O    11.73853   17.31916  -19.11256
      H1    12.20557   17.99312  -19.60695
       H    14.11954   15.03656  -14.50203
       O    13.37263   15.56956  -14.15517
      H1    12.79718   15.59827  -14.96836
       H     9.43171   10.84447  -19.73283
       O     9.97262   10.63339  -18.97615
      H1    10.69591   11.29972  -18.92934
       H    12.61432   12.66005  -18.68594
       O    12.50120   12.08559  -19.42900
      H1    13.33838   11.62542  -19.34203
       H    14.76162   18.49490  -15.18138
       O    14.33417   17.93575  -15.88001
      H1    14.13735   17.10299  -15.36737
       H    11.07198   13.27136  -17.21740
       O    11.95827   13.24824  -16.82282
      H1    11.95691   12.64415  -16.11823
       H    15.94575   15.28043  -18.26639
       O    16.35139   14.44733  -17.94055
      H1    17.31182   14.51604  -18.08530

