51
frame 2 | Written by MDAnalysis XYZWriter (release 2.4.3)
       H     9.27838  -11.88856   10.90547
       O     9.85508  -12.63860   10.64183
      H1     9.28329  -13.39927   10.57055
       H    12.46212   -7.14356   11.16729
       O    11.47764   -7.11823   11.10225
      H1    11.25743   -6.18497   10.95323
       H    14.73626   -7.35266   11.88314
       O    14.08227   -7.38671   11.14869
      H1    14.29299   -6.74156   10.44467
       H    19.00845  -11.16821    8.55454
       O    18.20042  -11.00434    9.10010
      H1    18.23015  -11.72770    9.76651
       H    13.73121  -11.39512   14.92787
       O    13.28052  -10.55919   14.73344
      H1    12.64735  -10.85998   14.07596
       H    13.73690  -13.33617    9.85377
       O    13.63694  -12.48107    9.46798
      H1    12.76943  -12.43586    9.05529
       H    14.60232   -8.63171    9.84846
       O    15.03106   -9.07693    9.11204
      H1    14.50238   -9.80910    8.75182
       H    10.29872  -12.22875   12.66500
       O    10.93008  -11.66969   13.06463
      H1    11.65725  -11.61155   12.35028
       H    15.29510  -12.26689    7.98559
       O    16.00899  -11.77228    7.54220
      H1    16.76025  -11.50064    8.16034
       H    14.43164  -14.03240   14.51624
       O    13.68495  -13.68642   14.09378
      H1    14.11148  -13.10083   13.42449
       H    14.64889  -15.03962   11.08883
       O    15.26541  -14.38961   10.76360
      H1    16.05566  -14.95432   10.45858
       H    13.72270  -10.78483   12.34856
       O    13.39828  -11.60518   11.99987
      H1    13.69604  -11.70658   11.05777
       H    12.86297  -16.61199   12.98744
       O    13.64132  -16.06643   12.72525
      H1    13.45498  -15.19927   13.13706
       H    17.80007   -9.59369   14.27939
       O    17.94533  -10.19067   13.55747
      H1    17.29849   -9.99314   12.80066
       H    15.76443  -11.24209   11.20975
       O    16.20059  -10.37189   11.29306
      H1    16.12270   -9.97367   10.41303
       H    10.49081  -12.42851    9.07824
       O    11.12067  -12.32636    8.34643
      H1    10.89503  -12.96634    7.64903
       H    10.25259   -8.98627    8.30419
       O     9.69788   -9.80741    8.23712
      H1    10.34098  -10.54150    8.04461

