51
frame 2 | Written by MDAnalysis XYZWriter (release 2.4.3)
       H   -14.11610  -11.28138   10.09503
       O   -14.09948  -11.86514    9.35560
      H1   -14.11059  -11.23684    8.60144
       H   -17.83100   -9.82912   11.65890
       O   -17.86538  -10.73149   12.02754
      H1   -18.74577  -10.98183   12.41223
       H   -16.39837   -9.33613    3.55111
       O   -15.86943   -9.78160    2.89922
      H1   -16.00743   -9.17876    2.18382
       H   -14.52764   -7.79629    8.48773
       O   -15.23239   -8.26871    8.94098
      H1   -15.70711   -7.63384    9.43553
       H   -17.36022   -7.40734   10.94260
       O   -17.75585   -8.28174   10.88912
      H1   -18.69608   -8.12658   10.63900
       H   -17.20176   -9.27920    6.39230
       O   -16.74736   -9.77886    7.10060
      H1   -16.36728   -9.17479    7.79406
       H   -17.81045  -13.23080    3.73214
       O   -17.64484  -12.26170    3.61251
      H1   -16.76065  -12.10162    4.05026
       H   -15.70189  -12.92967    8.22494
       O   -16.10088  -13.83739    8.28714
      H1   -15.40163  -14.43721    8.53656
       H   -19.17748  -12.71194    6.25291
       O   -19.06540  -12.04841    6.88585
      H1   -18.09432  -11.95479    6.96246
       H   -18.45825   -9.09644    4.72526
       O   -17.58360   -8.76537    4.62360
      H1   -17.69766   -7.84098    4.33542
       H   -13.18860   -8.73505   11.22995
       O   -13.22869   -9.36505   10.52853
      H1   -14.02360   -9.11970   10.04944
       H   -14.25719  -10.30715    2.99940
       O   -13.51576  -10.90585    2.78563
      H1   -12.66105  -10.49998    2.95143
       H   -12.36267   -7.40878    8.22790
       O   -13.09885   -7.09941    7.66187
      H1   -12.85786   -7.22063    6.79433
       H   -13.82255  -12.13254    4.21852
       O   -14.55355  -12.45559    4.78439
      H1   -14.59387  -11.68475    5.38510
       H   -17.10480  -13.27104    9.44623
       O   -17.70519  -13.09291   10.19164
      H1   -17.48818  -12.21887   10.47693
       H   -15.08692  -10.23397    6.80232
       O   -14.17229  -10.69326    6.77325
      H1   -13.44500  -10.09965    6.72145
       H   -16.46932   -5.66556    5.62424
       O   -17.41635   -5.92331    5.49188
      H1   -17.39504   -6.68269    6.09338

