51
frame 2 | Written by MDAnalysis XYZWriter (release 2.4.3)
       H   -15.03306  -19.48396    1.14248
       O   -15.09292  -19.09155    0.23229
      H1   -14.25184  -18.60311    0.14410
       H   -18.99713  -17.90959   -3.48447
       O   -19.54965  -17.25001   -3.85712
      H1   -20.13893  -17.03923   -3.14828
       H   -16.96260  -15.64491   -3.46638
       O   -17.60087  -15.14095   -3.95062
      H1   -18.35128  -15.68248   -3.92692
       H   -15.64644  -16.24272   -0.70355
       O   -15.34973  -15.80126    0.07317
      H1   -15.76369  -16.03787    0.85841
       H   -16.74668  -16.36512    3.20121
       O   -16.00441  -16.59043    2.70713
      H1   -16.21246  -17.44671    2.36118
       H   -16.40607  -12.26352    2.23998
       O   -15.65613  -12.50901    1.59629
      H1   -14.85321  -12.15237    2.02546
       H   -15.02705  -12.52420   -1.47665
       O   -14.13430  -12.25250   -1.39517
      H1   -13.61854  -13.09002   -1.51894
       H   -18.68121  -13.75831    0.24641
       O   -18.29264  -14.07791    1.10516
      H1   -17.36148  -14.05277    0.83803
       H   -16.23573  -12.30184   -4.41747
       O   -15.66557  -13.07166   -4.54955
      H1   -16.17336  -13.86299   -4.74870
       H   -12.69298  -14.95321    0.08220
       O   -12.73374  -14.20226    0.70034
      H1   -13.69483  -13.93113    0.70802
       H   -19.07750  -15.66157    0.98876
       O   -19.52156  -16.54659    1.00056
      H1   -19.60088  -16.74611    0.04804
       H   -15.48325  -17.93979   -5.42694
       O   -14.68826  -17.60455   -5.02916
      H1   -14.24755  -17.01317   -5.71152
       H   -12.36670  -17.51264   -1.68299
       O   -12.02042  -17.39575   -2.56693
      H1   -11.98510  -18.26417   -2.98037
       H   -13.95395  -16.52560    3.71118
       O   -13.17643  -16.64568    4.26324
      H1   -13.29576  -15.85502    4.90002
       H   -14.90775  -15.29652   -2.78391
       O   -15.28249  -16.11248   -2.55152
      H1   -14.96747  -16.76913   -3.17097
       H   -11.88153  -13.79872   -2.87222
       O   -12.39971  -14.39154   -2.26851
      H1   -12.81741  -15.16023   -2.76094
       H   -12.43620  -17.05261    0.80487
       O   -12.98425  -17.13394    0.01219
      H1   -13.86981  -16.72816    0.18837

