51
frame 2 | Written by MDAnalysis XYZWriter (release 2.4.3)
       H    -0.41811  -16.65073    1.50667
       O     0.45583  -17.01658    1.37150
      H1     1.03594  -16.46427    1.93539
       H    -5.98260  -16.45297    6.39877
       O    -5.64440  -16.07157    5.55673
      H1    -6.44325  -15.61953    5.21503
       H    -5.46575  -19.52110   -2.14862
       O    -5.31988  -18.72691   -1.64147
      H1    -6.06519  -18.14275   -1.77055
       H    -0.05781  -14.22919    4.26660
       O     0.60543  -14.27692    4.94572
      H1     1.50555  -14.31065    4.62385
       H    -3.99227  -16.47100    5.55986
       O    -3.02950  -16.31861    5.51847
      H1    -2.64255  -17.14798    5.09542
       H    -7.34659  -16.33861    2.64700
       O    -6.50547  -15.88866    2.39106
      H1    -6.52975  -15.87753    1.45018
       H    -2.86006  -18.10459    3.45196
       O    -2.42597  -18.65790    4.15478
      H1    -1.48115  -18.62237    3.98637
       H    -4.68157  -14.83881   -0.71223
       O    -4.08661  -14.33484   -1.30469
      H1    -3.27969  -14.89514   -1.38742
       H    -3.01346  -14.55945    5.39119
       O    -3.12557  -13.62340    5.28429
      H1    -3.79823  -13.57588    4.59013
       H    -5.83631  -12.43146    3.89360
       O    -5.18923  -13.06785    3.42642
      H1    -5.63489  -13.92135    3.25098
       H    -4.87273  -19.10986   -0.12908
       O    -4.67873  -19.34518    0.81914
      H1    -4.64718  -18.56230    1.44174
       H    -0.81015  -15.78391   -1.17533
       O    -1.76030  -15.84644   -1.06274
      H1    -2.06561  -16.73132   -1.26897
       H    -1.97178  -15.51835    0.95399
       O    -1.91213  -15.94553    1.79478
      H1    -1.82040  -15.14705    2.35318
       H    -3.50567  -16.69089    2.26783
       O    -4.16968  -17.34313    2.57174
      H1    -5.05128  -16.87074    2.48039
       H    -7.09091  -15.71564   -0.77544
       O    -6.62360  -15.07158   -0.22343
      H1    -7.16378  -14.32274   -0.03709
       H     0.35250  -17.90953    4.68989
       O     0.27674  -18.60658    4.08811
      H1     0.83389  -18.41228    3.34902
       H    -1.50817  -12.81862    3.00351
       O    -1.31283  -13.68592    3.30531
      H1    -1.82022  -13.60473    4.14269

