51
frame 2 | Written by MDAnalysis XYZWriter (release 2.4.3)
       H     5.67350    4.07601   11.14355
       O     4.74535    3.94614   11.34277
      H1     4.73042    3.12313   11.88931
       H    -0.71973    4.66762   13.83643
       O    -0.98516    4.84954   14.75694
      H1    -0.15620    4.85929   15.25501
       H     3.30856    6.55324   16.55851
       O     4.14124    7.11558   16.58368
      H1     3.89255    8.03671   16.35798
       H     5.31425    3.43091   14.88012
       O     5.50709    2.46322   14.90302
      H1     5.12618    2.12131   15.73133
       H    -0.53940    7.35505   10.23818
       O    -1.41421    6.89398   10.19584
      H1    -2.08642    7.33242   10.66328
       H     5.05554    6.20078   15.43375
       O     5.63272    5.76528   14.77812
      H1     5.19692    5.95693   13.96160
       H    -0.68397    7.35128   18.38661
       O    -0.19092    7.53074   17.59290
      H1    -0.23367    8.46374   17.37075
       H    -2.49901    5.78411   15.23480
       O    -3.33791    5.98781   15.69282
      H1    -3.21259    6.96532   15.90143
       H     0.97854    9.95342   12.99554
       O     1.73026   10.59269   13.01950
      H1     1.32026   11.45319   12.97622
       H     1.23378    5.41907   12.79210
       O     1.71668    6.15330   13.05795
      H1     1.72750    6.04591   14.02967
       H     1.12956    6.27568   16.78047
       O     1.85277    5.80262   16.36247
      H1     1.82560    4.94468   16.81220
       H     1.57950    2.55080   16.47479
       O     2.26339    3.20871   16.87480
      H1     2.62479    2.89582   17.75231
       H     4.32338    5.53959   12.03390
       O     4.25702    6.41304   12.43439
      H1     3.29798    6.51980   12.66681
       H     4.36048    8.04548   11.76383
       O     4.58737    8.64673   11.03629
      H1     5.59095    8.60806   10.97645
       H     0.60533    7.45647   12.94269
       O    -0.06337    8.18470   12.89332
      H1    -0.61234    8.12736   13.63842
       H     4.32241    1.95038   13.62177
       O     3.96010    1.73539   12.72850
      H1     3.03063    1.86042   12.88931
       H    -0.73332    4.02987   11.54020
       O    -0.13463    4.03821   12.34212
      H1     0.30544    3.17589   12.36868

