51
frame 2 | Written by MDAnalysis XYZWriter (release 2.4.3)
       H   -17.76639   11.42098  -11.38403
       O   -18.03967   10.49613  -11.40656
      H1   -18.57302   10.33769  -10.58428
       H   -18.53699    4.58928   -9.99612
       O   -19.10622    3.91536  -10.33503
      H1   -19.00509    3.09087   -9.79517
       H   -16.11423    2.29648  -12.05220
       O   -16.52744    3.03467  -11.50739
      H1   -17.39043    3.04586  -11.93645
       H   -14.25300    9.09195  -11.29320
       O   -13.79423    8.26685  -11.60720
      H1   -12.90000    8.51645  -11.73009
       H   -13.56742    2.81990   -9.19048
       O   -12.84594    3.38925   -9.49889
      H1   -13.09099    4.30763   -9.59131
       H   -17.56393    6.43550  -12.94798
       O   -16.67479    6.12301  -13.20720
      H1   -16.16939    6.91528  -13.43235
       H   -14.42821    7.06056   -9.18648
       O   -15.30863    7.40132   -8.90637
      H1   -15.92883    6.86040   -9.45228
       H   -16.50353    3.54989   -6.71258
       O   -15.67223    3.10974   -6.69651
      H1   -14.99748    3.80071   -6.63502
       H   -12.52411    6.65784  -10.43895
       O   -12.69356    6.24956   -9.56254
      H1   -11.80699    5.97044   -9.23520
       H   -17.94242    6.97470   -7.32420
       O   -17.11981    6.97067   -6.83941
      H1   -16.44448    6.99088   -7.52263
       H   -19.06267    4.53599  -12.35206
       O   -19.18236    5.19891  -13.03937
      H1   -19.97512    4.89426  -13.33512
       H   -19.11886    8.34197  -11.62817
       O   -18.87373    7.60189  -11.06697
      H1   -19.69891    7.11399  -10.95252
       H   -15.44057    1.98146   -9.88600
       O   -14.93724    1.78567   -9.07036
      H1   -15.37182    2.17268   -8.32444
       H   -16.80821    5.25330  -10.71157
       O   -17.16289    5.79699  -10.00117
      H1   -17.64863    6.51162  -10.57526
       H   -15.23739    4.80880  -13.26854
       O   -14.36332    4.32585  -13.34145
      H1   -14.37019    3.76274  -12.55110
       H   -17.75461    5.34624   -5.86482
       O   -17.81673    4.35785   -5.87477
      H1   -18.72560    4.09396   -6.20336
       H   -15.64003    8.96516  -10.05383
       O   -15.54572    9.93437  -10.21217
      H1   -16.35218   10.27602  -10.65115

