51
frame 3 | Written by MDAnalysis XYZWriter (release 2.4.3)
       H     8.11353    5.69258   12.67654
       O     8.10230    6.56705   12.17320
      H1     7.24221    6.97977   12.37214
       H    15.61054    5.38758   11.78819
       O    15.12509    6.24186   11.81351
      H1    14.32267    6.08144   12.28968
       H    11.60453    7.24771   15.24543
       O    10.88394    7.28303   15.87488
      H1    10.79866    6.37975   16.23800
       H     9.68320    9.39106   13.02465
       O    10.22969    9.44479   12.23120
      H1    10.27345    8.58105   11.84701
       H    13.51860    7.70503   14.69655
       O    12.86183    8.14093   14.06031
      H1    12.74406    9.02112   14.49169
       H    14.06171   10.24945   11.80302
       O    13.36928   10.60867   12.35959
      H1    12.59462   10.06162   12.39285
       H    11.63930    7.79919    7.15809
       O    11.49387    8.39016    6.35577
      H1    10.51202    8.33670    6.28801
       H     8.57293    7.48413    6.60379
       O     8.68408    7.73540    7.51547
      H1     8.12371    8.51757    7.56580
       H    11.44836    6.05793   11.84434
       O    10.94394    6.66992   11.25504
      H1     9.99103    6.46578   11.36461
       H    11.38312    7.04728    9.48361
       O    11.79778    6.77895    8.63544
      H1    11.49209    5.86062    8.45779
       H    12.56649    6.55717   13.55335
       O    12.67862    5.65048   13.21920
      H1    13.29719    5.23378   13.82213
       H    11.24284    3.77571    7.12900
       O    11.18233    4.07502    8.02847
      H1    10.34072    3.64929    8.27714
       H     8.95384    4.11922   14.04682
       O     7.95573    4.29117   13.85223
      H1     7.56097    3.40632   13.94131
       H    10.33473    3.54780   11.61351
       O    10.90046    3.27135   12.30371
      H1    11.59318    3.89507   12.43646
       H    13.82764    6.24787    8.76560
       O    14.73354    6.23177    9.07497
      H1    14.69465    6.23419   10.02838
       H     8.53169    3.54525    9.84747
       O     9.32326    2.98925    9.62703
      H1     8.98095    2.08712    9.39620
       H     7.28205    5.19880    9.37483
       O     7.56227    4.84879   10.24061
      H1     7.57109    5.68072   10.76232

