51
frame 3 | Written by MDAnalysis XYZWriter (release 2.4.3)
       H    -8.00293   -8.81603  -17.45159
       O    -8.00155   -9.57333  -18.06486
      H1    -7.82601   -9.26290  -18.95928
       H    -9.67491  -11.72432  -18.13977
       O   -10.61901  -11.60808  -18.41532
      H1   -10.73069  -10.85335  -19.03451
       H    -9.02596   -4.55634  -16.33833
       O    -9.45735   -5.26599  -16.86849
      H1    -9.84623   -4.87015  -17.64974
       H   -11.04027   -3.47683  -19.50377
       O   -10.77807   -4.38645  -19.39001
      H1    -9.93411   -4.62696  -19.86141
       H   -15.02503   -7.40051  -16.84192
       O   -16.00742   -7.30490  -16.90593
      H1   -16.40414   -7.48867  -17.75045
       H   -10.55735   -7.57853  -18.88449
       O    -9.74903   -7.45012  -19.34395
      H1    -9.18314   -7.18293  -18.65393
       H   -14.65890   -9.93613  -16.54134
       O   -13.94960   -9.49698  -16.00357
      H1   -13.66116  -10.18195  -15.41230
       H   -11.14685   -6.55875  -14.77981
       O   -11.36346   -5.63793  -14.97583
      H1   -10.78851   -5.25459  -15.66080
       H   -12.39021   -9.28849  -17.31196
       O   -11.49613   -9.04488  -17.53531
      H1   -11.01504   -9.89029  -17.64998
       H   -13.90771   -4.48846  -18.74717
       O   -14.49474   -3.67119  -18.90198
      H1   -14.39769   -3.65461  -19.82755
       H    -7.21746   -6.70044  -17.62010
       O    -7.67849   -7.23479  -16.89850
      H1    -8.41300   -6.65670  -16.64528
       H   -13.96754   -4.78140  -16.54634
       O   -13.68104   -5.65714  -16.35133
      H1   -12.91759   -5.62717  -15.73020
       H   -13.07772   -5.87033  -17.99863
       O   -12.79858   -6.06861  -18.92945
      H1   -11.98659   -5.60154  -18.92262
       H    -5.42494   -5.74194  -18.25760
       O    -6.13506   -6.22662  -18.73101
      H1    -5.75325   -6.78568  -19.40054
       H    -6.52174   -5.41699  -14.61732
       O    -6.42530   -6.37331  -14.54406
      H1    -6.97785   -6.70624  -15.28167
       H    -7.42673  -12.58888  -18.10198
       O    -8.17018  -12.18303  -17.69870
      H1    -8.17901  -11.28427  -17.98027
       H   -10.78586   -8.42198  -15.63283
       O   -10.95127   -8.15798  -14.69320
      H1   -10.36165   -8.65688  -14.08171

