51
frame 3 | Written by MDAnalysis XYZWriter (release 2.4.3)
       H   -15.43205   12.94608   18.10108
       O   -15.33136   12.07420   17.66240
      H1   -15.41756   11.41104   18.38188
       H    -9.09783   14.29160   17.57767
       O    -9.16409   15.12989   17.15169
      H1    -8.96799   15.77329   17.83087
       H   -14.57736   12.30573   15.78378
       O   -13.96426   12.20946   15.07326
      H1   -13.68439   13.03700   14.77430
       H   -12.78359   14.82137   16.51355
       O   -13.02710   15.21585   15.68678
      H1   -14.00268   15.28786   15.66764
       H   -18.81746   17.40902   17.04395
       O   -18.37922   17.22614   16.20162
      H1   -19.00425   16.53372   15.92521
       H   -11.73173   18.16480   18.29145
       O   -12.34677   17.45222   17.89405
      H1   -13.23505   17.80104   17.71413
       H   -15.19322   18.58064   17.89402
       O   -14.74270   18.43668   17.00179
      H1   -14.48878   19.35053   16.87224
       H   -17.54950   12.71699   14.43162
       O   -17.93242   13.31227   15.14582
      H1   -18.20920   12.71958   15.85071
       H   -11.34198   16.69710   15.22249
       O   -10.42366   16.70906   14.86915
      H1   -10.00314   16.75280   15.74280
       H   -11.49920   13.10767   17.48251
       O   -11.71484   13.93849   17.96005
      H1   -10.97895   14.48963   17.62508
       H   -16.41627   19.49359   19.75256
       O   -15.75609   18.88716   19.37112
      H1   -14.91043   19.35153   19.52287
       H   -16.60691   14.59017   15.65127
       O   -15.95680   15.14692   16.04407
      H1   -16.45070   15.93911   16.21215
       H   -16.26331   19.11246   14.77902
       O   -16.20214   19.63448   13.98934
      H1   -15.31506   19.55079   13.62447
       H   -17.54525   15.85134   13.28554
       O   -18.46489   15.83759   13.11336
      H1   -18.73621   16.76834   13.18806
       H   -14.82573   14.94786   18.98769
       O   -15.57706   14.41078   18.77231
      H1   -15.88269   14.70383   17.89848
       H   -10.63757   18.07057   13.58667
       O   -10.53812   18.44946   12.69030
      H1   -10.97048   19.31198   12.79171
       H   -18.14244   18.01621   11.83527
       O   -18.36408   18.44834   12.67366
      H1   -17.48726   18.79204   13.03189

