51
frame 4 | Written by MDAnalysis XYZWriter (release 2.4.3)
       H    -8.62825    3.63104    6.16404
       O    -8.02247    3.54997    5.40864
      H1    -7.34845    2.88875    5.65323
       H   -10.27372    6.28132    5.20029
       O    -9.58102    6.23122    4.55048
      H1    -8.74620    6.49504    5.01216
       H    -6.45326    5.24289    1.22333
       O    -6.71598    5.11158    0.29876
      H1    -7.53664    4.59088    0.30291
       H    -3.05525    1.64937    3.61569
       O    -3.76969    2.29709    3.65861
      H1    -4.49440    2.01157    3.09141
       H    -8.01825    8.46888    0.60134
       O    -8.42475    7.61730    0.65469
      H1    -7.70168    6.94056    0.58320
       H    -5.40079    2.21127    0.79821
       O    -5.75303    1.68070    1.59680
      H1    -5.60731    0.70637    1.28628
       H    -8.49762    2.59223    2.65449
       O    -8.23719    1.68185    2.65813
      H1    -7.32925    1.71672    2.26232
       H    -7.27171    5.93124    5.87040
       O    -7.21551    6.83341    5.61001
      H1    -7.55058    7.28745    6.38296
       H   -10.06352    4.05775    1.36918
       O   -10.86006    3.82313    0.83437
      H1   -11.05968    2.89319    1.01757
       H    -9.03532    9.87004    3.08166
       O    -9.57052    9.08283    3.22556
      H1    -9.02927    8.27759    3.47462
       H    -8.99465    5.19128    3.04549
       O    -8.68980    4.43304    2.48379
      H1    -7.73698    4.55422    2.47113
       H    -5.75473    3.91004   -0.24740
       O    -5.13957    3.25919   -0.60673
      H1    -4.27729    3.70533   -0.50099
       H    -4.84699    5.37317    4.65643
       O    -4.11593    4.97507    5.13529
      H1    -4.00490    4.10703    4.75131
       H    -5.25009    6.08225    2.32073
       O    -5.96183    5.72060    2.87194
      H1    -6.43083    6.46289    3.17845
       H   -10.99308    5.71031    0.84779
       O   -10.93589    6.62977    1.05983
      H1    -9.96804    6.74135    1.25702
       H    -9.47810    3.84947   -0.32960
       O    -8.57692    3.54579   -0.67660
      H1    -8.33618    4.13233   -1.45951
       H    -8.80117   -0.20274   -0.15469
       O    -9.15535    0.62536   -0.49350
      H1    -8.68627    1.28854    0.01230

