51
frame 3 | Written by MDAnalysis XYZWriter (release 2.4.3)
       H   -13.74752    3.90196   11.98823
       O   -13.56299    2.94962   12.10652
      H1   -13.10474    2.78196   12.96123
       H   -16.92415   -4.86959   13.74830
       O   -16.18093   -4.28983   13.58392
      H1   -16.18940   -3.69607   14.37341
       H   -14.38362   -0.62067   14.68882
       O   -13.43635   -0.88598   14.65376
      H1   -13.29569   -1.74727   14.27100
       H   -10.66404   -2.88920   15.99691
       O   -10.46858   -3.18630   16.88008
      H1   -10.87955   -4.05192   16.78354
       H   -16.68447   -2.85543   12.80259
       O   -16.80616   -1.94320   12.47158
      H1   -17.56666   -1.95448   11.87099
       H   -15.19633    2.24294   12.49037
       O   -16.09512    1.82228   12.45818
      H1   -16.15986    1.39292   11.51329
       H   -16.68806   -0.52680   13.95221
       O   -16.21107   -0.20643   14.76121
      H1   -16.34214   -0.93333   15.43387
       H   -13.25765   -1.58691   11.42149
       O   -14.01511   -1.06924   11.08831
      H1   -14.81232   -1.27349   11.62152
       H   -12.49576   -3.88655   14.11099
       O   -11.86587   -3.21633   14.39141
      H1   -11.49693   -2.75618   13.66575
       H   -12.93679   -1.30216   16.52840
       O   -12.74466   -1.52858   17.46332
      H1   -12.02641   -2.23352   17.44743
       H   -16.39657   -2.88402   16.69127
       O   -16.84884   -2.75220   15.86902
      H1   -17.81948   -2.62460   16.11552
       H    -9.09534   -1.55757   15.68793
       O    -9.50454   -1.24103   14.91832
      H1    -9.57273   -0.30845   14.92579
       H   -10.47036   -2.46235   11.70177
       O   -11.19045   -1.81732   11.62096
      H1   -10.78610   -0.99174   11.82820
       H   -11.16306    0.95436   11.53141
       O   -10.46970    0.69840   12.13187
      H1   -10.77659    0.85154   13.01819
       H   -14.44822   -4.41000   17.03144
       O   -14.54783   -3.65747   17.63546
      H1   -13.88783   -2.98549   17.40047
       H   -13.71001   -5.43224   14.65192
       O   -13.67869   -5.04760   13.75425
      H1   -14.56477   -4.66247   13.68305
       H   -12.27098    2.18745   15.10528
       O   -12.22297    1.76049   14.26254
      H1   -12.81184    1.02151   14.30919

