51
frame 4 | Written by MDAnalysis XYZWriter (release 2.4.3)
       H    13.07414   -5.04824    3.93908
       O    13.79696   -5.25087    4.67174
      H1    14.47967   -5.73427    4.20194
       H    17.15397  -10.53644    0.72335
       O    16.85254   -9.86269    1.39757
      H1    15.88486   -9.66681    1.44065
       H    13.65744   -9.35655    3.16885
       O    14.42477   -9.11679    2.59825
      H1    15.06399   -8.58036    3.12767
       H    18.52607   -4.08105    6.47584
       O    18.42740   -3.14313    6.50877
      H1    18.20047   -2.96031    7.43873
       H    18.54663   -6.52592   -0.92651
       O    17.89529   -5.80252   -0.84596
      H1    18.34244   -5.06222   -0.50265
       H    16.56624   -6.82384    4.22974
       O    15.77911   -7.27309    4.61916
      H1    16.04093   -7.34720    5.51625
       H    14.28045   -3.68762    5.24785
       O    14.52817   -2.79607    5.57128
      H1    15.45149   -2.67830    5.31108
       H    17.13597   -0.92244    4.06029
       O    17.24725   -1.85169    4.25614
      H1    17.73360   -1.96837    5.05893
       H    15.89711   -3.82992    0.33304
       O    14.91090   -3.84829    0.25141
      H1    14.84787   -3.45317   -0.65107
       H    19.28086   -3.59049    2.86876
       O    18.32909   -3.59789    2.68381
      H1    17.92275   -2.85598    3.21503
       H    15.33273   -5.05458    8.42275
       O    16.06253   -5.56368    8.83311
      H1    16.44850   -6.21195    8.26831
       H    18.61518   -8.68731    1.62680
       O    19.29900   -8.01294    1.89372
      H1    19.87957   -7.85377    1.09737
       H    14.58342   -6.78222    1.16853
       O    14.08759   -6.16766    1.76445
      H1    14.24533   -5.36182    1.22502
       H    18.41479   -6.74893    2.94421
       O    18.13782   -6.17582    3.69596
      H1    18.17335   -5.32154    3.22518
       H    18.55175   -2.44444   -0.13715
       O    17.81897   -3.00890    0.14245
      H1    18.15112   -3.06363    1.08105
       H    16.06985   -8.33918    7.44446
       O    16.63294   -7.66412    6.98690
      H1    17.47490   -8.08490    6.91740
       H    16.30624   -6.79087   -0.44839
       O    15.82658   -7.54160   -0.16471
      H1    16.42383   -7.98350    0.44013

