51
frame 3 | Written by MDAnalysis XYZWriter (release 2.4.3)
       H     6.18196  -18.95418  -15.17397
       O     5.29995  -19.28430  -14.96086
      H1     5.39500  -20.25841  -14.95782
       H     3.26516  -16.51481   -9.10747
       O     3.13571  -17.48904   -9.15133
      H1     3.85041  -17.83433   -9.72931
       H     0.91139  -19.19525  -15.72749
       O     1.84183  -18.99304  -15.55734
      H1     2.30903  -19.43581  -16.24499
       H     5.16167  -16.86842  -14.84760
       O     5.46615  -16.21514  -14.18917
      H1     6.31007  -16.51387  -13.80812
       H     3.33199  -17.03476  -16.71444
       O     4.27126  -17.34143  -16.82435
      H1     4.44074  -18.13965  -16.28401
       H     5.40573  -12.82948  -15.39672
       O     5.41419  -13.62542  -15.94515
      H1     5.41404  -14.35382  -15.34780
       H     0.81041  -15.83791  -14.59627
       O     1.53021  -16.22334  -15.12349
      H1     1.50396  -17.18580  -14.93780
       H     1.42729  -15.95593  -16.89056
       O     1.66381  -16.16780  -17.79494
      H1     2.32999  -15.53616  -18.08846
       H     3.08194  -19.10302  -12.20274
       O     2.17614  -18.83152  -12.37321
      H1     2.27726  -17.89412  -12.63069
       H     1.19733  -13.46116  -15.85584
       O     0.72954  -13.51902  -16.67758
      H1    -0.15741  -13.09911  -16.57680
       H     0.32854  -13.89226  -12.78013
       O     0.41149  -13.72195  -13.71358
      H1    -0.42785  -13.34414  -13.83559
       H     4.14804  -16.27293  -13.12585
       O     3.15723  -16.23655  -12.92326
      H1     2.68059  -16.17252  -13.78152
       H     3.10627  -14.23390  -12.21857
       O     3.31801  -13.48042  -11.58591
      H1     4.25256  -13.17009  -11.60366
       H     1.33602  -18.39210  -10.23258
       O     0.41652  -18.19377  -10.28028
      H1    -0.08514  -18.93606  -10.68319
       H     1.37934  -13.04091  -10.41019
       O     0.49156  -13.37439  -10.42564
      H1     0.56030  -14.04937   -9.74700
       H     3.36951  -14.66812   -9.96723
       O     3.50175  -14.88906   -9.05570
      H1     4.47029  -14.88340   -8.94533
       H     2.97878  -11.97554  -12.25202
       O     3.10085  -11.03872  -12.49188
      H1     2.40932  -10.71340  -13.08610

