51
frame 3 | Written by MDAnalysis XYZWriter (release 2.4.3)
       H   -11.62253   -7.60495   17.89701
       O   -12.42421   -8.01361   18.21232
      H1   -12.75430   -7.64922   19.01014
       H   -10.24576  -10.01493   17.68167
       O   -10.91527  -10.20864   18.32612
      H1   -11.47486   -9.43991   18.27589
       H    -8.04375   -4.66964   18.11989
       O    -8.02632   -4.37880   19.03229
      H1    -7.33357   -4.96337   19.42737
       H   -13.46250  -10.78103   16.74120
       O   -12.96985  -11.59573   16.90806
      H1   -12.39127  -11.31086   17.60428
       H   -10.66404   -2.88920   15.99691
       O   -10.46858   -3.18630   16.88008
      H1   -10.87955   -4.05192   16.78354
       H    -9.83670   -8.38791   16.26749
       O    -9.62543   -9.29354   15.93264
      H1    -9.64397   -9.26891   14.97928
       H   -16.81318   -9.00536   13.48741
       O   -16.54754   -8.71004   14.38592
      H1   -15.62502   -8.95220   14.42811
       H   -18.41626   -5.63834   18.99154
       O   -17.71358   -4.98568   18.99553
      H1   -17.38176   -4.92383   19.93792
       H   -14.53155   -6.27196   19.23048
       O   -15.35281   -6.67950   18.87941
      H1   -15.94577   -5.91260   18.75087
       H   -13.51890   -6.77355   16.78244
       O   -14.07154   -6.15195   16.25410
      H1   -15.04824   -6.32536   16.42486
       H   -16.61456   -7.18444   15.42054
       O   -16.67337   -6.38909   16.02786
      H1   -16.91153   -6.69161   16.88118
       H   -15.98976   -9.50805   17.86192
       O   -15.81452   -9.38887   18.76916
      H1   -15.72416   -8.44693   18.80270
       H    -9.64715   -6.96531   18.15528
       O   -10.06813   -6.77451   17.28024
      H1    -9.30897   -6.48633   16.75042
       H   -16.27560  -11.32298   16.50275
       O   -16.70843  -10.44549   16.40603
      H1   -16.69918  -10.24433   15.40175
       H   -14.44822   -4.41000   17.03144
       O   -14.54783   -3.65747   17.63546
      H1   -13.88783   -2.98549   17.40047
       H   -13.71001   -5.43224   14.65192
       O   -13.67869   -5.04760   13.75425
      H1   -14.56477   -4.66247   13.68305
       H   -13.84720   -9.89705   14.05551
       O   -13.79305   -8.91650   14.23433
      H1   -13.56993   -8.36871   13.45699

