51
frame 4 | Written by MDAnalysis XYZWriter (release 2.4.3)
       H    16.29141   -1.04432   12.89210
       O    16.09719   -1.66602   13.64086
      H1    15.58241   -1.05340   14.25362
       H    19.35335    0.56544    9.96939
       O    18.67723    0.96203   10.52004
      H1    19.04296    1.34301   11.29860
       H    16.67277    5.82897   11.38251
       O    15.99477    6.51973   11.06158
      H1    15.10800    6.31901   11.44305
       H    18.52131    4.31599   10.61446
       O    18.33860    4.98793   11.35096
      H1    18.37290    4.37194   12.12588
       H    16.57808    0.43638   15.98769
       O    15.82958   -0.16103   15.93397
      H1    15.91951   -0.87839   16.61061
       H    18.46404    2.14173   13.72792
       O    18.87137    2.43353   12.90587
      H1    19.60189    2.97249   13.18160
       H    19.01959    7.00133    8.35973
       O    18.89807    6.15556    7.75943
      H1    18.61458    5.31401    8.17453
       H    14.83649    3.38657   13.22749
       O    14.03413    3.66834   13.70161
      H1    14.22481    3.77351   14.64422
       H    18.54083    2.47868    9.66010
       O    18.58848    3.25625    9.10214
      H1    17.80042    3.31890    8.51040
       H    16.00685   -0.60790   10.82155
       O    16.37588   -0.08799   11.51077
      H1    17.15516    0.39521   11.17321
       H    15.35795    3.26514   10.75112
       O    15.58286    2.80942   11.56626
      H1    15.62214    1.92193   11.28110
       H    19.08638    6.49690   11.64700
       O    19.61456    7.29205   11.72323
      H1    19.36201    7.70046   12.53819
       H    19.08743   -0.90115   11.17194
       O    19.43104   -1.40857   11.87514
      H1    19.19817   -1.00671   12.72370
       H    19.14876    0.38699   14.47246
       O    18.73805   -0.45996   14.26329
      H1    17.74677   -0.43753   14.33519
       H    18.11792    5.71246   15.93755
       O    18.73973    6.40544   15.54724
      H1    18.51840    7.26836   16.03541
       H    16.06974    4.86773   16.24150
       O    16.95318    4.45044   16.32487
      H1    16.95626    4.02401   17.18938
       H    18.80590    2.21049   15.87825
       O    17.91650    1.93947   15.63092
      H1    17.24528    2.61341   15.95103

