51
frame 3 | Written by MDAnalysis XYZWriter (release 2.4.3)
       H    11.98768   10.53509  -15.76994
       O    11.49501   11.38871  -15.85802
      H1    12.20035   11.98255  -15.47533
       H    12.75195   15.13330  -16.82979
       O    13.02948   16.00807  -17.05120
      H1    13.90302   15.74482  -17.41709
       H    15.88852   14.11072  -16.73303
       O    15.37612   14.32311  -15.97121
      H1    14.90049   13.50316  -15.69817
       H     9.56730   14.60248  -13.43495
       O     9.21912   15.18269  -14.11034
      H1     8.82674   14.58014  -14.78384
       H    17.48540   17.08155  -15.43511
       O    17.48123   17.62400  -16.26887
      H1    16.51741   17.58825  -16.59599
       H    17.18794   13.79899  -15.42479
       O    17.95247   13.45731  -14.98396
      H1    17.68876   13.17769  -14.10030
       H    10.36807   18.23567  -14.70663
       O    10.87634   17.38987  -14.97893
      H1    10.24452   16.72682  -14.65217
       H     8.65145   17.42651  -19.38156
       O     8.71369   17.46986  -18.40919
      H1     9.62312   17.68348  -18.18273
       H    14.30058   12.11310  -15.05363
       O    13.63565   12.72779  -14.86224
      H1    13.76901   12.85752  -13.91825
       H     9.54640   14.76174  -19.08269
       O     9.30858   14.01773  -18.54916
      H1     8.77675   14.36948  -17.81772
       H    12.55645   16.73291  -18.57490
       O    12.38642   17.13569  -19.42278
      H1    13.25974   17.23828  -19.86456
       H    14.77684   15.55175  -14.38822
       O    14.27057   16.34555  -14.23458
      H1    13.88155   16.32568  -15.07657
       H    13.54065   19.32257  -14.45715
       O    12.66378   19.35533  -13.95924
      H1    12.16216   18.50391  -14.20279
       H    11.75449   15.09776  -12.49601
       O    12.62536   15.38696  -12.30949
      H1    13.02796   15.54701  -13.18832
       H    14.88035   18.65163  -16.39152
       O    14.78534   18.26092  -17.28432
      H1    13.91184   17.75839  -17.28569
       H    10.74090   13.13917  -18.38445
       O    11.51699   12.58808  -18.31849
      H1    11.67729   12.34143  -17.36168
       H    16.49649   13.76435  -19.27168
       O    16.86114   13.44508  -18.42937
      H1    17.76530   13.57837  -18.34276

