51
frame 3 | Written by MDAnalysis XYZWriter (release 2.4.3)
       H     4.92277   16.32267  -14.92462
       O     5.02885   17.23870  -15.14254
      H1     4.24725   17.32572  -15.70971
       H     9.56730   14.60248  -13.43495
       O     9.21912   15.18269  -14.11034
      H1     8.82674   14.58014  -14.78384
       H     5.46777   16.60728  -17.40088
       O     4.85154   16.79222  -18.06059
      H1     4.25018   17.45593  -17.65211
       H     1.82385   15.04901  -15.33094
       O     1.74347   15.98301  -15.71407
      H1     1.24796   15.83538  -16.54816
       H     4.76390   14.11365  -17.43632
       O     5.04523   13.82073  -16.58697
      H1     4.38872   13.16264  -16.29348
       H     5.35606   10.03083  -15.25583
       O     4.82679    9.55700  -15.86947
      H1     5.12553    9.87294  -16.74475
       H     7.92359   13.09206  -15.94745
       O     7.77985   13.98885  -16.20667
      H1     6.79684   14.05650  -16.27884
       H     3.09800   13.32955  -18.63845
       O     3.48755   14.14048  -18.93966
      H1     2.92234   14.83279  -18.53720
       H     5.80685   13.27142  -18.72295
       O     6.46170   13.00047  -19.39113
      H1     7.33596   13.31439  -19.14226
       H     9.54640   14.76174  -19.08269
       O     9.30858   14.01773  -18.54916
      H1     8.77675   14.36948  -17.81772
       H     3.31008   11.33727  -15.86135
       O     3.38470   12.15145  -15.31245
      H1     3.87937   11.81711  -14.52281
       H     6.38215   11.52712  -18.21532
       O     6.25815   10.57933  -18.11825
      H1     6.76122   10.19323  -18.84062
       H     4.19946   14.81022  -11.92690
       O     3.55724   14.38479  -11.34910
      H1     2.68926   14.74306  -11.65839
       H     1.68896   12.78862  -14.56458
       O     0.87247   13.23836  -14.37924
      H1     0.25588   12.63978  -14.82947
       H     6.08299   11.31715  -13.96136
       O     5.29899   11.00790  -13.59966
      H1     5.53554   10.65981  -12.74113
       H     0.65033   12.51652  -17.80684
       O     1.51771   12.09589  -18.01863
      H1     1.32830   11.36055  -18.62825
       H     8.00195   11.25603  -14.80100
       O     7.30347   11.31865  -15.42928
      H1     7.30505   10.53536  -16.01230

