51
frame 3 | Written by MDAnalysis XYZWriter (release 2.4.3)
       H    -8.19370    7.73539  -18.18674
       O    -8.79289    8.53058  -18.03834
      H1    -9.29196    8.31131  -17.20791
       H   -11.66075   10.32662  -13.72158
       O   -12.19476    9.62916  -13.44121
      H1   -12.40013    9.71132  -12.48643
       H   -12.07995    7.88133  -18.67242
       O   -11.32735    8.00095  -19.26045
      H1   -10.60630    8.25288  -18.67231
       H    -7.31022   11.22623  -17.13561
       O    -7.89173   10.70542  -16.62218
      H1    -7.97691    9.90494  -17.18701
       H    -6.35678    5.62841  -15.70473
       O    -5.95246    6.47490  -15.41055
      H1    -5.05128    6.27071  -15.40996
       H   -11.12740    7.05582  -12.03375
       O   -10.67300    6.23924  -11.81986
      H1    -9.72240    6.49815  -11.74176
       H    -7.40568    8.13040  -15.06053
       O    -7.78176    8.28325  -14.23592
      H1    -7.56445    7.52081  -13.65376
       H    -4.23260    8.95286  -13.92693
       O    -4.50722    9.62619  -14.58556
      H1    -5.45829    9.45835  -14.61250
       H   -11.46522   11.75576  -16.57170
       O   -11.06840   10.85516  -16.60898
      H1   -10.25152   10.93453  -16.05799
       H   -10.45929    4.01201  -16.12013
       O    -9.63776    3.74642  -15.70365
      H1    -9.89827    3.20027  -14.96372
       H    -6.61393    4.16274  -17.11649
       O    -6.87471    3.80374  -16.18407
      H1    -7.82925    3.82523  -16.19473
       H    -9.26849    7.75443  -14.97509
       O    -9.82123    7.40621  -15.69975
      H1   -10.61593    7.11879  -15.34099
       H    -7.26601    5.99973  -11.31193
       O    -7.79760    6.62203  -11.78600
      H1    -7.75217    7.49821  -11.22938
       H   -13.83065   10.89340  -16.49011
       O   -14.09942   10.06512  -16.00009
      H1   -13.26207    9.79721  -15.54612
       H   -12.77579    6.48389  -13.88308
       O   -12.87044    7.18463  -14.52329
      H1   -12.61306    7.93408  -13.97793
       H    -8.82319   11.61474  -15.36083
       O    -9.27152   11.99372  -14.61259
      H1    -8.74315   11.69822  -13.81020
       H    -6.50474    4.06991  -14.43937
       O    -6.57556    4.12542  -13.47223
      H1    -6.86903    5.04761  -13.36886

