51
frame 4 | Written by MDAnalysis XYZWriter (release 2.4.3)
       H    16.38526  -11.49213   14.76877
       O    16.28388  -12.27962   15.37420
      H1    15.67708  -12.00868   16.05026
       H     7.56778  -17.82361   17.34288
       O     8.45373  -17.39977   17.44271
      H1     8.40881  -16.57096   16.91256
       H     9.59466  -13.40677   13.76427
       O     9.90621  -14.22117   14.20859
      H1     9.15769  -14.40356   14.79722
       H    14.45096  -16.43041   14.16325
       O    13.72229  -16.37173   14.83694
      H1    12.92213  -16.52344   14.29382
       H    12.78644  -14.20670   15.48616
       O    11.98745  -13.86407   15.97850
      H1    11.30474  -13.94080   15.28241
       H    12.39725  -11.03225   15.39545
       O    12.00377  -10.29551   14.88483
      H1    11.77825  -10.69417   14.03561
       H    10.23215  -15.89146   13.39868
       O    10.62860  -16.73842   13.29606
      H1    10.76836  -16.93979   14.23926
       H    14.47991  -12.62518   17.38703
       O    14.39039  -11.66564   17.18927
      H1    14.63135  -11.08357   17.91174
       H    11.12103  -10.00899   16.63910
       O    10.86118  -10.00031   17.54382
      H1    11.25398  -10.72785   17.98890
       H    12.06565   -9.03475   18.44692
       O    12.87410   -8.75510   18.86908
      H1    12.85964   -7.81882   19.02223
       H    10.84871  -12.83552   19.06579
       O    11.63420  -13.31982   18.82717
      H1    11.58225  -13.29427   17.86509
       H     7.20208  -15.11786   14.93615
       O     7.76741  -14.98708   15.74121
      H1     7.40543  -14.30482   16.31994
       H    14.26883  -14.21863   14.25360
       O    13.63375  -13.75795   13.68807
      H1    14.18556  -12.98912   13.27723
       H    12.07400  -15.76164   18.50368
       O    12.63178  -15.93979   17.77726
      H1    12.43376  -15.18874   17.21277
       H    15.36700  -14.08505   18.80604
       O    14.84909  -14.14773   17.95806
      H1    14.25935  -14.93973   18.04160
       H    10.20490  -17.68240   16.47757
       O    11.08230  -17.44882   16.09319
      H1    11.53467  -16.95262   16.77759
       H     7.84983   -9.13806   17.63679
       O     7.98082   -9.91215   17.04998
      H1     8.94189   -9.97940   17.01020

