51
frame 4 | Written by MDAnalysis XYZWriter (release 2.4.3)
       H    18.71716    3.67064   -6.17345
       O    19.27833    3.38347   -5.48398
      H1    19.58665    2.49423   -5.69223
       H    18.60537    5.23457    2.02554
       O    19.29102    5.80330    2.44482
      H1    19.91590    5.86856    1.74715
       H    14.76832    2.79222   -6.24342
       O    14.71076    2.98137   -5.28003
      H1    14.69565    3.98787   -5.30239
       H    15.95200    6.58765   -5.91660
       O    15.33568    5.95115   -5.48509
      H1    15.92489    5.73609   -4.73751
       H    17.18575    1.15540    1.42260
       O    17.51416    1.70111    0.76160
      H1    18.51417    1.63271    0.76028
       H    16.79875    1.74461   -0.82877
       O    16.27094    1.64456   -1.66259
      H1    16.61315    2.29829   -2.29646
       H    18.06482    5.02382   -2.68157
       O    18.57305    5.80793   -2.59748
      H1    18.37025    6.41410   -3.31037
       H    13.49123    5.40081   -2.89224
       O    12.91568    6.12589   -3.25130
      H1    13.44038    6.78492   -3.75164
       H    16.24308    3.37493   -4.24912
       O    17.03755    3.59889   -3.66219
      H1    17.82195    3.24158   -4.07705
       H    17.78778    7.66377   -7.00545
       O    17.46554    7.76427   -6.09624
      H1    18.18151    8.11571   -5.52745
       H    17.32829    3.34016    2.10869
       O    17.10175    4.27183    2.13202
      H1    17.34569    4.56955    3.02931
       H    19.80844    8.39542   -3.88266
       O    18.86730    8.29854   -3.85664
      H1    18.56015    8.97909   -3.25608
       H    14.95176    6.85426    0.19834
       O    14.30427    7.59400    0.28308
      H1    13.46231    7.29709   -0.08038
       H    14.82155    7.42646   -4.43715
       O    14.12821    8.14062   -4.36125
      H1    14.36759    8.61169   -3.59779
       H    18.44156    8.36436   -0.19624
       O    19.22725    8.01983   -0.63096
      H1    18.78160    7.34798   -1.13669
       H    15.38687    4.09292   -1.82199
       O    14.46141    4.33154   -1.91578
      H1    14.13464    4.54097   -1.05917
       H    16.85564    5.23815    0.41206
       O    16.37541    5.88860   -0.04730
      H1    16.81642    6.12428   -0.84222

