51
frame 5 | Written by MDAnalysis XYZWriter (release 2.4.3)
       H     3.31077   13.09949   15.66426
       O     3.83988   12.74542   16.36396
      H1     4.60253   12.40018   15.88454
       H     3.30691   12.82462   13.32531
       O     3.83714   12.05112   13.09549
      H1     4.56095   12.31063   12.56886
       H     3.63008   17.35205   12.81303
       O     2.67615   17.45421   12.90620
      H1     2.17291   16.65894   12.63938
       H     5.71906   17.55290   12.28065
       O     5.58444   16.76383   12.79544
      H1     5.71916   16.11265   12.08009
       H     6.97698   16.25835   13.82379
       O     7.77893   15.98829   14.36356
      H1     7.84241   14.98760   14.18220
       H     2.01745   15.38766   17.71196
       O     1.12874   15.69484   17.63049
      H1     1.03856   16.35737   16.95600
       H    -0.05906   17.61832   10.68943
       O     0.22020   17.18934    9.91685
      H1    -0.55755   16.80570    9.44158
       H    -0.49875   16.91786   15.03623
       O     0.21724   17.26409   15.60254
      H1     0.07968   18.19044   15.39903
       H    -0.53389   13.34561   15.88768
       O    -0.36500   13.54451   14.96441
      H1    -0.72570   14.45589   14.81692
       H     0.89264   15.87764   11.11799
       O     1.08710   15.35475   11.90966
      H1     0.50771   14.56675   11.93126
       H     3.34674   17.58491   15.81647
       O     3.90828   17.78744   16.60139
      H1     3.53187   17.13854   17.20384
       H     2.45771   14.84552   10.85332
       O     3.21198   14.85791   10.25169
      H1     2.96620   15.22530    9.40728
       H    -1.33374   19.71445   12.49465
       O    -1.66842   19.26970   11.67532
      H1    -1.52183   19.80466   10.92896
       H     0.77535   18.39786    8.86895
       O     0.86814   19.15445    8.27623
      H1     0.30975   18.98204    7.47021
       H     6.25253   15.65708    9.95640
       O     5.87323   15.14843   10.70996
      H1     4.90361   15.02966   10.56566
       H    -2.21366   15.88971   14.94571
       O    -1.74478   15.87531   14.15558
      H1    -2.23580   16.41663   13.53734
       H     2.18327   14.96961   14.30257
       O     2.34204   14.06608   14.43993
      H1     1.48820   13.69649   14.70043

