51
frame 5 | Written by MDAnalysis XYZWriter (release 2.4.3)
       H   -11.71505   -7.33491   17.25001
       O   -12.65941   -7.47623   17.21614
      H1   -12.96174   -7.33256   18.10431
       H   -10.82634   -9.75090   16.82036
       O   -11.52505  -10.12051   17.42112
      H1   -12.12850   -9.41274   17.59661
       H   -10.79052   -3.91735   16.59004
       O   -11.69673   -3.97926   16.93347
      H1   -12.11497   -3.98818   16.07639
       H    -9.34836   -8.43260   16.34054
       O    -9.49584   -9.25619   15.90242
      H1    -9.54377   -9.16473   14.97539
       H    -9.38316   -5.21383   19.14006
       O   -10.25511   -4.79076   19.19857
      H1   -10.66591   -5.31796   18.53035
       H    -6.99617   -8.35777   14.97808
       O    -7.11207   -7.45910   14.67991
      H1    -7.58665   -7.51929   13.82074
       H    -6.44315   -8.47891   17.82045
       O    -6.50866   -8.92015   18.68956
      H1    -6.99702   -9.80416   18.62222
       H    -7.59189   -2.02046   19.29483
       O    -7.76183   -1.74788   18.39466
      H1    -7.02375   -1.18909   18.11707
       H   -10.70518    0.06069   18.36716
       O   -10.49253    1.00672   18.37730
      H1   -10.98927    1.29088   19.16073
       H   -13.68616   -6.19348   16.69231
       O   -14.14900   -5.52270   16.19827
      H1   -15.00748   -5.90321   16.13068
       H   -12.74303   -1.18290   17.47375
       O   -12.47977   -1.77688   18.19356
      H1   -12.05052   -2.51318   17.79207
       H    -8.52615   -2.45384   17.09395
       O    -9.16618   -2.84114   16.41458
      H1    -9.14724   -2.17978   15.73272
       H    -8.52094   -4.60575   16.38648
       O    -7.91972   -5.36467   16.55001
      H1    -7.58262   -5.54218   15.65818
       H    -9.94752   -7.33370   18.42225
       O    -9.96809   -7.14325   17.49288
      H1    -9.14891   -6.64595   17.28123
       H    -4.47745   -5.89696   18.93959
       O    -4.92210   -5.58667   18.18518
      H1    -4.84484   -4.61721   18.08855
       H   -14.48138   -4.31935   17.61513
       O   -14.73001   -3.42523   17.99720
      H1   -13.89839   -3.04416   18.25730
       H    -5.64222   -6.70888   15.35386
       O    -4.66981   -6.56427   15.58672
      H1    -4.73182   -6.27157   16.49121

