51
frame 5 | Written by MDAnalysis XYZWriter (release 2.4.3)
       H   -10.66809  -16.22386   -3.63764
       O   -10.45509  -15.94147   -4.53548
      H1    -9.49896  -16.08844   -4.81834
       H   -15.96088  -12.56074   -0.39047
       O   -16.52201  -12.53391   -1.18891
      H1   -17.34021  -13.09464   -1.10377
       H   -10.80800  -14.93281   -7.31960
       O   -10.52326  -14.07064   -7.36112
      H1   -10.12591  -13.85918   -6.48266
       H   -10.85170  -12.42127   -0.88072
       O   -10.33006  -11.59797   -0.78991
      H1   -10.92245  -10.89524   -1.02489
       H   -12.07286  -15.67694    2.02771
       O   -11.76015  -15.99952    1.16156
      H1   -11.86843  -15.18449    0.59689
       H   -12.03413  -10.46631   -5.85648
       O   -11.51307  -10.22922   -5.02474
      H1   -12.12813  -10.34345   -4.27102
       H    -9.99525  -13.97416   -4.68421
       O    -9.57830  -13.26920   -5.09003
      H1   -10.17971  -12.53368   -4.93325
       H   -13.99866  -10.08313   -3.54749
       O   -13.36450  -10.57063   -2.99951
      H1   -13.91177  -11.39846   -2.84933
       H   -16.09134  -11.31826   -3.82909
       O   -15.58226  -12.17198   -3.67838
      H1   -15.84716  -12.41038   -2.74767
       H   -14.20848  -13.04561   -4.86271
       O   -13.34697  -13.26969   -5.18554
      H1   -13.09129  -12.52701   -5.72447
       H   -12.31575  -14.03789   -1.36067
       O   -11.87524  -13.76338   -0.56642
      H1   -12.68855  -13.34511   -0.18600
       H   -12.41472  -16.67694   -7.03189
       O   -11.50788  -16.84387   -6.93519
      H1   -11.29072  -16.47983   -6.03612
       H   -14.51323  -19.24853   -4.86922
       O   -14.07134  -18.39462   -5.11373
      H1   -13.81634  -18.43542   -6.08543
       H   -12.53188  -17.39690   -1.68483
       O   -12.01786  -17.21091   -2.46881
      H1   -12.15236  -17.99250   -3.01263
       H   -15.05377  -15.34933   -3.59613
       O   -15.70522  -15.53291   -4.33508
      H1   -15.39724  -16.43097   -4.64969
       H   -13.20174  -14.13825   -3.62025
       O   -13.33957  -14.70197   -2.84448
      H1   -13.12878  -15.58194   -3.20827
       H   -14.88845  -15.38995   -7.08913
       O   -13.89173  -15.56863   -6.98251
      H1   -13.62582  -14.83741   -6.42306

