51
frame 4 | Written by MDAnalysis XYZWriter (release 2.4.3)
       H   -14.02493   18.28140    0.84043
       O   -14.57582   18.85180    0.30070
      H1   -13.99947   19.58333    0.05273
       H   -11.61033   17.39096   -0.84264
       O   -11.62135   16.98699    0.02649
      H1   -10.89228   16.33000    0.12055
       H   -13.41901   20.09052   -5.03005
       O   -12.54047   19.95192   -4.67667
      H1   -12.59584   19.20441   -4.07140
       H   -13.15637   16.18557    0.30141
       O   -13.85235   15.49939    0.36025
      H1   -14.44884   15.79305   -0.33876
       H   -13.64109   18.53087    3.38016
       O   -14.19640   18.87194    4.09178
      H1   -15.01265   18.32774    3.99374
       H   -11.49408   17.32887    1.90088
       O   -11.71287   17.90383    2.62299
      H1   -11.54227   17.32265    3.38141
       H   -12.74207   16.89691   -3.62154
       O   -12.33023   17.62252   -3.13129
      H1   -11.40109   17.53558   -3.26071
       H   -15.42039   16.89446   -2.52529
       O   -15.62856   16.31704   -1.76720
      H1   -16.28354   15.66525   -2.07802
       H   -15.36919   15.06997    1.40140
       O   -16.10208   14.62820    1.89942
      H1   -16.97672   14.97491    1.59792
       H   -14.90201   13.03287   -1.76951
       O   -14.02879   12.79710   -2.12150
      H1   -13.59867   12.69503   -1.27210
       H    -7.60557   16.32961   -2.00934
       O    -6.72681   16.37012   -1.53642
      H1    -6.37581   15.49052   -1.25152
       H   -10.07089   12.53888   -0.99878
       O   -10.50205   13.36811   -1.34193
      H1   -10.08035   13.58949   -2.20258
       H    -9.41716   17.83433   -3.34670
       O    -9.46659   17.95848   -2.39627
      H1    -9.65002   18.92029   -2.36349
       H   -10.48305   13.76079    3.73177
       O    -9.69160   14.11652    3.31981
      H1   -10.04474   14.38909    2.44052
       H   -11.85407   13.26330   -0.31222
       O   -12.62432   13.11317    0.26210
      H1   -13.17593   13.92270    0.32857
       H    -7.43978   17.02515   -0.19205
       O    -7.95451   17.22428    0.64917
      H1    -8.39690   18.05948    0.45194
       H    -9.94669   14.63138    0.01135
       O    -9.68988   15.14200    0.73897
      H1    -9.13906   15.89138    0.45802

