51
frame 4 | Written by MDAnalysis XYZWriter (release 2.4.3)
       H    16.25074   -5.24590   -5.24662
       O    16.51487   -5.04990   -4.32876
      H1    15.87765   -5.24620   -3.68283
       H    14.29634   -2.44115   -2.98799
       O    14.08123   -3.03037   -2.21927
      H1    13.94479   -3.93402   -2.51395
       H    18.54663   -6.52592   -0.92651
       O    17.89529   -5.80252   -0.84596
      H1    18.34244   -5.06222   -0.50265
       H    16.56152   -2.00632   -1.55720
       O    16.57735   -1.54685   -2.39775
      H1    16.64806   -0.57156   -2.21091
       H    18.54645   -4.79877   -2.79927
       O    19.34399   -4.56278   -3.26566
      H1    19.01163   -4.05941   -4.04987
       H    15.89711   -3.82992    0.33304
       O    14.91090   -3.84829    0.25141
      H1    14.84787   -3.45317   -0.65107
       H    16.83377   -5.54476   -7.14458
       O    15.96340   -5.68831   -6.68851
      H1    15.46642   -4.91775   -7.08210
       H    18.75992   -4.16571   -7.58442
       O    18.51317   -5.09923   -7.60280
      H1    19.19677   -5.54763   -7.05888
       H    18.61518   -8.68731    1.62680
       O    19.29900   -8.01294    1.89372
      H1    19.87957   -7.85377    1.09737
       H    17.03905   -2.88586   -4.24836
       O    17.73272   -2.47208   -4.75577
      H1    17.41899   -1.55158   -4.77057
       H    18.55175   -2.44444   -0.13715
       O    17.81897   -3.00890    0.14245
      H1    18.15112   -3.06363    1.08105
       H    18.35415   -8.07901   -3.70197
       O    17.91312   -7.51480   -4.38683
      H1    17.51682   -6.78413   -3.97102
       H    20.07251   -1.42984   -3.59521
       O    19.42712   -0.85019   -3.22580
      H1    18.59952   -1.39590   -3.39534
       H    15.91232   -8.93002   -6.35656
       O    16.77258   -9.25562   -6.01085
      H1    17.11782   -8.50007   -5.48269
       H    16.30624   -6.79087   -0.44839
       O    15.82658   -7.54160   -0.16471
      H1    16.42383   -7.98350    0.44013
       H    17.26657   -2.25742   -6.51262
       O    17.34327   -2.34447   -7.52492
      H1    16.90167   -3.15119   -7.78254
       H    18.96721  -10.81012   -3.29220
       O    18.76602   -9.93589   -2.85424
      H1    18.17786  -10.21667   -2.09903

