51
frame 4 | Written by MDAnalysis XYZWriter (release 2.4.3)
       H     6.78375   19.40497   -3.19245
       O     7.38143   19.27536   -3.94703
      H1     7.16634   18.37861   -4.22909
       H    -1.55818   17.00369   -3.64326
       O    -2.09790   16.72708   -2.90540
      H1    -1.95106   17.39112   -2.23290
       H     0.30940   14.25010   -3.23630
       O     0.17013   14.91874   -2.52793
      H1    -0.44093   15.59378   -2.90865
       H     3.34977   18.68895   -3.63036
       O     3.34571   19.29834   -2.83098
      H1     2.43396   19.65040   -2.91053
       H     2.28342   19.69093   -0.03994
       O     2.08617   18.74824    0.11752
      H1     1.18330   18.68167    0.49446
       H    -1.20132   17.89265   -5.22666
       O    -0.38714   17.33778   -5.08819
      H1     0.18352   17.97567   -4.62406
       H     5.58687   14.45170   -3.54779
       O     5.86954   15.21813   -3.05201
      H1     5.97985   15.89068   -3.72262
       H     2.62483   16.93043   -2.38890
       O     2.95255   16.11499   -2.77064
      H1     3.88953   15.99953   -2.50729
       H     3.37268   16.20619   -7.24044
       O     4.15151   15.87364   -7.70446
      H1     4.21941   14.87884   -7.47867
       H     6.05319   18.25898   -1.27179
       O     5.54686   19.11424   -1.14477
      H1     4.65915   19.15044   -1.55427
       H     2.81549   17.38548   -5.74938
       O     3.48773   17.45111   -5.03601
      H1     3.35052   16.73936   -4.42347
       H     6.48349   18.27422    0.74016
       O     6.69102   17.33987    0.65466
      H1     6.88687   16.82295    1.44367
       H     1.29825   18.07947   -6.68917
       O     2.10327   17.92613   -7.22556
      H1     2.39535   18.90014   -7.32762
       H     5.33273   17.03541   -5.50960
       O     6.18820   16.92098   -5.09981
      H1     6.80015   16.98387   -5.85719
       H     2.41678   14.32917   -3.00827
       O     2.17843   13.68670   -3.66959
      H1     2.35248   14.30915   -4.41096
       H     4.83297   17.34749    0.70216
       O     4.10917   17.34148    1.34448
      H1     3.30113   17.66727    0.92838
       H     0.77398   15.74078   -5.94804
       O     1.38707   15.03717   -6.20975
      H1     0.90362   14.27106   -5.99331

