51
frame 4 | Written by MDAnalysis XYZWriter (release 2.4.3)
       H    -5.94445  -19.41693  -16.91498
       O    -5.58276  -18.50788  -16.69227
      H1    -5.38611  -18.47523  -15.76577
       H    -6.99896  -17.52918  -14.03577
       O    -7.23051  -17.47849  -13.10520
      H1    -6.71081  -18.06448  -12.56703
       H    -4.81517  -11.75821  -15.70066
       O    -4.58277  -12.64508  -15.36120
      H1    -4.15829  -13.17639  -16.09038
       H    -4.09703  -18.32658  -14.12630
       O    -4.05219  -17.42665  -14.47227
      H1    -3.17293  -17.07240  -14.27923
       H    -8.00632  -15.80346  -12.67057
       O    -8.09398  -14.81488  -12.66513
      H1    -7.90391  -14.55926  -13.56890
       H    -6.26044  -14.87338  -12.13215
       O    -5.29913  -14.64523  -12.00661
      H1    -5.35568  -13.71158  -12.26474
       H    -5.00735  -15.73700  -14.53052
       O    -5.66901  -15.26923  -15.07421
      H1    -5.09767  -14.46970  -15.15187
       H    -7.49174  -12.59857  -14.13420
       O    -8.36238  -12.66613  -14.57034
      H1    -8.23521  -12.57190  -15.53285
       H    -1.15694  -16.74105  -12.73810
       O    -1.15704  -17.53034  -13.24332
      H1    -0.57872  -18.01618  -12.61351
       H    -5.36746  -18.69316  -10.41272
       O    -5.68868  -18.86763  -11.35204
      H1    -6.37414  -19.64245  -11.25031
       H    -5.82159  -11.87615  -13.95715
       O    -6.22318  -12.12507  -13.10343
      H1    -6.48439  -11.34490  -12.62015
       H    -2.48258  -13.63652  -17.31033
       O    -3.32242  -14.10925  -17.51316
      H1    -3.16871  -15.07500  -17.32990
       H    -2.22769  -17.33525  -16.58230
       O    -2.93203  -16.82237  -16.96693
      H1    -3.66974  -17.05867  -16.36673
       H    -9.47165  -17.21518  -16.18391
       O    -9.44086  -16.46575  -16.76238
      H1    -8.48682  -16.41235  -16.86515
       H    -6.88346  -14.00598  -10.64345
       O    -6.98354  -14.30820   -9.73970
      H1    -7.90289  -14.60278   -9.71252
       H    -6.32393  -16.69581  -17.78178
       O    -6.81630  -15.91773  -17.51811
      H1    -6.37070  -15.61843  -16.71093
       H    -1.70158  -12.93020  -14.73043
       O    -1.21655  -12.53230  -14.00764
      H1    -1.91551  -12.33286  -13.39025

