51
frame 4 | Written by MDAnalysis XYZWriter (release 2.4.3)
       H    10.14734   -4.02027   16.46319
       O    10.71020   -4.40909   17.18014
      H1    10.36801   -5.28313   17.26685
       H    11.72321   -7.72806   14.83560
       O    10.84797   -7.58507   15.21220
      H1    10.21946   -7.46994   14.43746
       H     5.24893   -3.50163   16.20441
       O     5.97958   -3.66447   15.53227
      H1     5.50173   -3.71852   14.70835
       H     4.15048   -1.62259   17.49335
       O     4.29050   -0.79964   17.01338
      H1     5.16637   -0.85971   16.63084
       H    13.37138   -5.53928   19.94548
       O    14.01644   -6.12346   19.43444
      H1    14.09419   -5.72136   18.53543
       H     8.66478   -7.13128   17.49694
       O     9.64255   -6.95524   17.63513
      H1    10.02885   -7.20068   16.76653
       H     8.02371   -3.53516   18.14507
       O     8.44046   -4.28292   18.60458
      H1     9.38918   -4.25391   18.46143
       H    11.89297   -3.04446   17.50144
       O    12.10429   -2.11181   17.72006
      H1    12.49460   -1.71185   16.83406
       H     8.09576   -3.59318   12.27221
       O     8.60575   -2.81628   12.53211
      H1     8.69518   -2.88415   13.49899
       H     4.34383   -7.49683   18.79803
       O     3.93820   -6.78249   18.24707
      H1     4.36870   -6.79817   17.41552
       H     7.84983   -9.13806   17.63679
       O     7.98082   -9.91215   17.04998
      H1     8.94189   -9.97940   17.01020
       H     8.18171   -1.52900   17.34825
       O     7.42223   -2.16837   17.53075
      H1     7.28633   -2.66908   16.69666
       H     3.51241   -4.04068   17.69372
       O     4.25848   -3.43244   17.58147
      H1     4.72950   -3.38641   18.41950
       H     5.69956   -6.67073   15.07427
       O     5.86353   -6.32371   15.96068
      H1     6.06531   -5.33964   15.79129
       H     9.78586   -0.00820   16.08633
       O     9.75887   -0.30304   17.01368
      H1    10.39761    0.34278   17.34412
       H     6.66804   -7.17110   17.19911
       O     7.06693   -7.45923   18.05301
      H1     7.16022   -6.63441   18.56182
       H     9.99499   -3.52473   14.66041
       O     9.38225   -3.07409   15.25598
      H1     9.76637   -2.19126   15.43131

