51
frame 5 | Written by MDAnalysis XYZWriter (release 2.4.3)
       H   -16.51632    6.32000    9.25756
       O   -16.62270    6.66544   10.14451
      H1   -17.60337    6.63127   10.38903
       H   -16.04002   13.53170   11.64581
       O   -15.95402   12.61529   11.35846
      H1   -16.19391   12.64215   10.44383
       H   -13.82210   10.33023    7.15487
       O   -13.26253   10.11956    7.94643
      H1   -13.85722    9.67363    8.59963
       H   -10.22919    8.07076    9.59077
       O   -10.67234    7.49200    8.93680
      H1   -11.64794    7.61879    9.07853
       H   -15.50280    8.28155   10.11985
       O   -14.70669    8.81483    9.96084
      H1   -14.63401    9.42259   10.73165
       H   -17.12951    9.63415    8.90974
       O   -17.62581    9.31418    8.15547
      H1   -17.92853   10.13924    7.75520
       H   -11.36475   10.15581    7.53942
       O   -10.59218    9.94942    6.94110
      H1   -10.89938   10.01402    6.01411
       H   -14.27988   10.25438   12.70897
       O   -13.98696   10.65352   11.85164
      H1   -14.62873   11.30600   11.50647
       H   -17.05923    7.30527    7.56626
       O   -17.07594    6.40924    7.39841
      H1   -18.04426    6.33048    7.32822
       H   -12.45690   10.54663    9.55655
       O   -11.86741   10.54210   10.30921
      H1   -12.36772   10.33869   11.10848
       H   -16.27827   13.67275    5.79307
       O   -15.42151   13.48407    6.19975
      H1   -15.28527   12.56502    6.02908
       H   -15.06731    8.01853    5.05528
       O   -15.67380    8.55383    4.48624
      H1   -15.54556    8.05516    3.66095
       H   -15.17745   10.19772    5.21412
       O   -14.52778   10.83343    5.52041
      H1   -13.95502   11.04741    4.75999
       H    -8.82523   11.66788   10.73648
       O    -9.53207   11.92580   10.14722
      H1   -10.36265   11.61730   10.45852
       H   -13.92854    7.38914    8.67778
       O   -13.54180    6.69644    8.10825
      H1   -13.33503    5.95233    8.71734
       H   -13.03918   12.46485    8.34026
       O   -13.10654   13.29429    8.90709
      H1   -12.34836   13.85303    8.60071
       H   -17.26655   13.27925    8.49698
       O   -16.39802   12.87757    8.61154
      H1   -15.97451   13.17714    7.74728

