51
frame 4 | Written by MDAnalysis XYZWriter (release 2.4.3)
       H    -4.81517  -11.75821  -15.70066
       O    -4.58277  -12.64508  -15.36120
      H1    -4.15829  -13.17639  -16.09038
       H    -1.78794  -11.95524  -17.39614
       O    -1.07541  -12.66021  -17.32532
      H1    -0.91941  -12.94527  -18.23000
       H     1.05203   -9.94590  -16.22889
       O     0.57638   -9.10389  -16.13204
      H1     1.26770   -8.56563  -15.79733
       H     0.48562  -15.07899  -13.83383
       O     0.85135  -15.60033  -14.56415
      H1     0.28561  -16.39711  -14.55203
       H     1.54178  -15.48673  -16.49443
       O     2.08791  -15.61252  -17.29366
      H1     2.78648  -14.93120  -17.40958
       H    -2.48258  -13.63652  -17.31033
       O    -3.32242  -14.10925  -17.51316
      H1    -3.16871  -15.07500  -17.32990
       H     0.98928  -15.86310  -18.81782
       O     0.39971  -15.93585  -19.59464
      H1     1.05556  -15.74818  -20.31197
       H     1.84548  -12.30361  -15.69600
       O     1.43271  -11.76120  -16.32290
      H1     0.61290  -12.26255  -16.46535
       H    -3.40111  -10.46649  -17.24088
       O    -2.70152  -10.73993  -16.65629
      H1    -3.04602  -10.56625  -15.78230
       H     0.34206  -13.98948  -11.44211
       O     0.05374  -14.24514  -12.35471
      H1    -0.34884  -13.51302  -12.83957
       H    -4.03128  -10.62960  -19.24342
       O    -4.35524   -9.86414  -18.72462
      H1    -4.78094   -9.29677  -19.39145
       H     3.52561  -12.80626  -18.59927
       O     4.03930  -13.47265  -18.07604
      H1     4.52706  -13.10032  -17.36101
       H     2.32626  -11.90233  -18.07736
       O     2.29214  -11.83935  -19.06279
      H1     2.08032  -10.89105  -19.31570
       H    -2.22769  -17.33525  -16.58230
       O    -2.93203  -16.82237  -16.96693
      H1    -3.66974  -17.05867  -16.36673
       H    -1.70158  -12.93020  -14.73043
       O    -1.21655  -12.53230  -14.00764
      H1    -1.91551  -12.33286  -13.39025
       H    -1.77818   -8.77192  -16.48270
       O    -2.06311   -7.86911  -16.21603
      H1    -1.46535   -7.30016  -16.74705
       H    -0.73057  -10.72139  -14.05775
       O    -0.47502   -9.81686  -13.86948
      H1     0.06327   -9.51292  -14.60221

