51
frame 4 | Written by MDAnalysis XYZWriter (release 2.4.3)
       H   -15.61913   -5.24817   10.53208
       O   -16.10422   -6.12107   10.40799
      H1   -16.89812   -5.74368    9.89889
       H   -17.01154   -4.34889   13.02855
       O   -16.45436   -3.61404   13.29409
      H1   -16.70125   -3.52281   14.23370
       H   -13.44392   -7.65160    8.57038
       O   -14.32828   -8.01602    8.83190
      H1   -14.85458   -7.23854    9.01704
       H   -16.68972   -1.88353   12.56400
       O   -17.15099   -1.11083   12.23995
      H1   -18.01458   -1.44106   11.96573
       H   -16.98634   -7.50165   11.73871
       O   -17.72971   -8.13560   11.84430
      H1   -18.23991   -8.11612   11.03674
       H   -17.07182   -8.46588   13.85343
       O   -16.95777   -8.88882   14.69449
      H1   -16.14485   -9.39178   14.61988
       H   -15.90215   -8.44201    5.81611
       O   -15.21219   -8.93633    6.27259
      H1   -15.25733   -8.54931    7.19343
       H   -14.06079   -2.99140    9.25261
       O   -14.79876   -3.61574    9.33905
      H1   -15.46610   -2.95069    9.57279
       H   -17.57874   -5.94464   14.10209
       O   -18.39799   -5.65802   13.69865
      H1   -18.63499   -6.23899   12.96029
       H   -13.03570   -7.49061   12.48656
       O   -13.72580   -7.54141   13.15177
      H1   -13.86540   -6.63527   13.34288
       H   -14.68633   -9.71632   11.55582
       O   -14.34509   -9.90039   10.70457
      H1   -14.34509   -9.09094   10.10967
       H   -17.42931   -1.83303    7.42021
       O   -16.75311   -2.00327    8.08001
      H1   -15.92253   -2.10463    7.62963
       H   -13.77289   -2.90742   12.14997
       O   -13.40474   -2.03318   12.06532
      H1   -12.47970   -2.28712   11.81705
       H   -18.61656   -3.86476    9.72095
       O   -17.91924   -4.38501    9.27012
      H1   -17.45696   -3.65942    8.78270
       H   -11.61525   -6.66565   13.54616
       O   -11.46109   -5.90273   12.98264
      H1   -12.25884   -5.31122   13.16425
       H   -14.25392   -6.24472    6.73052
       O   -14.78116   -5.44102    6.46995
      H1   -14.66565   -4.70685    7.05623
       H   -13.73888   -4.71858   14.74323
       O   -14.01532   -4.58312   13.81250
      H1   -14.84445   -4.11303   13.82819

