51
frame 5 | Written by MDAnalysis XYZWriter (release 2.4.3)
       H    -6.33095   12.76859   15.44037
       O    -6.92700   12.68583   16.18605
      H1    -7.18391   13.56089   16.44377
       H    -3.99282   13.46551   18.84139
       O    -3.37345   12.76991   18.47626
      H1    -3.41430   11.93734   18.88887
       H    -4.42044   12.03310   14.08970
       O    -5.26135   12.25641   13.65945
      H1    -5.15662   12.33057   12.69980
       H    -1.28887   10.96190   12.37748
       O    -1.60792   10.07875   12.52766
      H1    -1.35976    9.76518   13.39654
       H    -0.32833   12.86775   18.17639
       O    -0.88110   12.31821   17.56616
      H1    -1.72127   12.39283   18.01472
       H    -0.49875   16.91786   15.03623
       O     0.21724   17.26409   15.60254
      H1     0.07968   18.19044   15.39903
       H    -0.53389   13.34561   15.88768
       O    -0.36500   13.54451   14.96441
      H1    -0.72570   14.45589   14.81692
       H    -5.81132   16.13688   14.82298
       O    -5.71139   15.94532   15.76656
      H1    -4.85257   16.28286   15.98190
       H     0.57959   12.10808   10.89511
       O    -0.05322   12.69518   11.35850
      H1    -0.57901   12.96606   10.59804
       H    -2.18617   10.19803   15.13970
       O    -1.99588    9.24852   15.06293
      H1    -1.34206    9.02726   15.78737
       H    -1.41284   10.17257   19.65001
       O    -2.33872   10.27259   19.57161
      H1    -2.73607    9.41193   19.37854
       H    -3.28811   17.68144   15.84433
       O    -2.99027   16.87980   16.30590
      H1    -2.32097   17.13504   16.96895
       H    -2.22077   12.71412   15.51616
       O    -2.83598   12.03051   15.31648
      H1    -3.44413   12.04696   16.06418
       H     0.78063    9.51795   16.66823
       O    -0.02676    9.43747   17.25214
      H1    -0.32794   10.34344   17.42873
       H    -2.21366   15.88971   14.94571
       O    -1.74478   15.87531   14.15558
      H1    -2.23580   16.41663   13.53734
       H     2.18327   14.96961   14.30257
       O     2.34204   14.06608   14.43993
      H1     1.48820   13.69649   14.70043
       H    -5.06142   10.30408   18.09544
       O    -5.60519   10.33002   17.28013
      H1    -6.05127   11.20777   17.19966

