51
frame 6 | Written by MDAnalysis XYZWriter (release 2.4.3)
       H   -17.00151    4.90211   18.60368
       O   -16.24081    5.38003   18.32262
      H1   -15.99241    6.04528   18.99090
       H   -10.86474    6.02511   13.26361
       O   -11.25745    6.13936   14.09141
      H1   -11.56410    7.05877   14.09528
       H   -12.42369    1.41045   18.42218
       O   -11.54630    1.58352   18.07498
      H1   -10.86301    1.20258   18.58379
       H   -13.66434    4.03738   15.32323
       O   -13.43492    4.36248   14.41766
      H1   -12.65532    4.96767   14.46411
       H   -13.58341    9.96041   18.91143
       O   -14.41165    9.87920   19.42035
      H1   -14.73011    8.92294   19.39198
       H   -13.42591    8.72902   14.83193
       O   -12.52411    8.43940   14.72817
      H1   -12.27843    8.03169   15.56926
       H   -14.45111    1.90170   18.55795
       O   -14.32970    1.02943   18.17469
      H1   -14.58582    0.41881   18.90049
       H   -13.65806    6.87694   16.69865
       O   -12.85679    6.91441   17.24388
      H1   -12.43016    6.06233   17.12362
       H    -9.71759    7.91419   16.22371
       O    -9.40306    6.99979   16.14756
      H1   -10.02239    6.53421   15.63802
       H   -10.13724    9.72495   16.09566
       O   -10.39373    9.26772   16.89039
      H1    -9.75493    9.70977   17.48482
       H    -6.65467    5.29118   18.34534
       O    -7.17956    5.04813   19.08274
      H1    -7.00603    4.07273   19.22929
       H   -14.94663    4.23069   18.37663
       O   -14.13969    3.75278   18.66348
      H1   -13.36767    4.09016   18.21930
       H   -14.13662    7.17390   18.63821
       O   -14.65940    7.24360   19.41784
      H1   -13.95453    7.32790   20.11862
       H   -16.10932    4.48942   16.36790
       O   -15.95786    3.62188   16.01664
      H1   -16.55223    3.58665   15.27063
       H   -11.38964    3.40628   17.68752
       O   -11.71489    4.35057   17.63119
      H1   -11.48330    4.67597   18.56201
       H    -8.43948    6.28622   19.17475
       O    -9.12462    6.99439   19.28952
      H1    -9.34479    7.06535   18.32366
       H   -11.67764    1.17046   16.15572
       O   -11.60372    0.65859   15.36157
      H1   -12.22095   -0.09120   15.49505

