51
frame 5 | Written by MDAnalysis XYZWriter (release 2.4.3)
       H     0.61111  -10.04461  -11.34687
       O     0.97706   -9.47538  -12.01961
      H1     0.63489   -9.69324  -12.93025
       H    -0.82138   -6.72508  -10.84912
       O    -1.43250   -7.07000  -10.19727
      H1    -2.26180   -6.45229  -10.24634
       H    -1.97604  -11.39668  -16.75410
       O    -1.83719  -12.29372  -16.42890
      H1    -1.19628  -12.70486  -16.98811
       H     1.03403   -7.65768  -11.77777
       O     1.15150   -6.83685  -11.30262
      H1     1.40039   -7.06486  -10.42060
       H    -3.73957  -10.29044  -12.81060
       O    -4.06366  -10.60950  -11.96059
      H1    -3.57499  -10.08972  -11.32753
       H    -3.78108   -6.01343  -15.69472
       O    -4.46184   -5.36276  -15.42079
      H1    -4.09617   -4.60198  -15.91834
       H    -3.10815   -9.68143  -17.24371
       O    -2.30071   -9.57185  -16.73594
      H1    -2.51766   -9.50563  -15.81128
       H    -1.58374   -7.27326  -15.44065
       O    -1.26742   -7.45886  -14.54941
      H1    -0.72008   -8.26206  -14.64046
       H    -4.54332   -9.34030  -14.74154
       O    -3.65506   -9.25403  -14.43491
      H1    -3.54462   -8.39124  -13.96933
       H    -3.96173  -10.65338  -18.95025
       O    -4.01445   -9.69581  -18.76799
      H1    -4.37300   -9.30854  -19.57963
       H    -1.47818   -4.45959  -18.88475
       O    -2.18078   -3.80060  -19.04785
      H1    -2.34244   -3.27968  -18.25264
       H    -4.81548   -6.15136  -13.36030
       O    -4.95528   -6.88731  -12.72361
      H1    -5.92936   -7.01413  -12.74265
       H    -5.58378   -5.81016  -16.77386
       O    -5.97556   -6.56614  -17.26712
      H1    -5.19383   -7.08838  -17.58016
       H    -0.23823   -6.48780  -19.31757
       O    -0.32965   -5.71041  -18.75122
      H1     0.53519   -5.27754  -18.73628
       H    -2.24336   -7.88739  -17.20293
       O    -2.10784   -6.96359  -16.99273
      H1    -1.36763   -6.68612  -17.53262
       H    -0.33759   -5.63301  -14.13496
       O     0.39618   -5.03608  -13.95453
      H1     0.90765   -5.04987  -14.76421
       H     0.10241  -10.90480  -14.77088
       O     0.14993   -9.94736  -14.75873
      H1     0.88228   -9.74380  -15.32442

