51
frame 5 | Written by MDAnalysis XYZWriter (release 2.4.3)
       H   -15.59050   12.22934    2.50012
       O   -16.30033   12.63045    2.96547
      H1   -16.53094   13.40279    2.37749
       H   -12.07295   10.56611    3.74006
       O   -12.59676   11.36163    3.60217
      H1   -13.03589   11.28629    2.72906
       H   -17.56461   11.75105    1.41614
       O   -18.13266   11.51827    0.65253
      H1   -17.70506   11.96775   -0.09449
       H   -11.97245    9.03404   -0.48439
       O   -11.10754    9.12297   -0.88569
      H1   -10.66029    8.24971   -0.67660
       H   -16.44584   14.70085    0.57902
       O   -16.78731   14.78879    1.45657
      H1   -17.72338   14.64391    1.26923
       H   -13.55639   12.20860    0.87921
       O   -14.03830   11.49906    1.32673
      H1   -14.08375   10.67136    0.85007
       H   -15.25423   12.40659   -1.59364
       O   -14.35943   12.14689   -1.86061
      H1   -13.80567   12.44899   -1.09420
       H   -14.22341   10.34182   -2.39200
       O   -14.26001    9.45652   -2.71357
      H1   -15.21288    9.38230   -3.05051
       H   -11.85004   12.18482   -3.35228
       O   -12.13836   13.05381   -3.15377
      H1   -12.97821   12.83264   -2.78089
       H   -14.51101    8.49157    0.22638
       O   -13.80350    8.85388   -0.23331
      H1   -14.11365    8.97115   -1.15917
       H   -17.36090   13.51306   -1.61161
       O   -17.01408   12.60717   -1.77905
      H1   -17.42990   12.31480   -2.66324
       H   -11.28758   12.45148    4.14321
       O   -10.68984   13.09448    4.51053
      H1   -10.04953   12.82762    5.19967
       H   -11.80049   13.56727   -0.22232
       O   -12.72153   13.45550    0.01012
      H1   -13.29477   14.08185   -0.44268
       H   -14.67544    6.49284    2.18534
       O   -15.15190    7.38526    2.14241
      H1   -15.83260    7.06882    1.53958
       H   -15.06731    8.01853    5.05528
       O   -15.67380    8.55383    4.48624
      H1   -15.54556    8.05516    3.66095
       H   -15.17745   10.19772    5.21412
       O   -14.52778   10.83343    5.52041
      H1   -13.95502   11.04741    4.75999
       H   -17.67861    8.41440   -0.83951
       O   -16.86736    8.80002   -0.40008
      H1   -17.15199    9.61559   -0.02107

