51
frame 0 | Written by MDAnalysis XYZWriter (release 2.4.3)
       H   -10.29707  -14.82553  -12.53074
       O   -10.12171  -14.49789  -11.60649
      H1    -9.85828  -13.56558  -11.75780
       H   -12.70572  -11.35351  -13.17200
       O   -11.75836  -11.33279  -12.94533
      H1   -11.27648  -11.76631  -13.62665
       H   -14.09466   -9.35246  -10.74833
       O   -14.82940   -9.98949  -10.63524
      H1   -15.62674   -9.42365  -10.77848
       H    -9.80078  -10.46626   -9.68108
       O    -9.10853  -10.68112   -9.06155
      H1    -9.51107  -11.17330   -8.27638
       H    -9.08934  -12.58334  -14.48933
       O    -9.99248  -12.45181  -14.81109
      H1    -9.91149  -11.83048  -15.54537
       H   -14.57345  -10.24522  -13.87781
       O   -14.51235  -11.00493  -13.36812
      H1   -14.84235  -10.70501  -12.52801
       H   -12.53787   -9.44564   -9.20777
       O   -12.51630   -8.54244   -9.51482
      H1   -13.02108   -8.07734   -8.88639
       H   -11.74080  -11.88384  -11.29198
       O   -11.58319  -12.04929  -10.32017
      H1   -11.40373  -12.99179  -10.17499
       H   -13.48430   -7.89990  -13.46687
       O   -12.68594   -7.63919  -12.97296
      H1   -12.01231   -8.31927  -13.24322
       H   -15.01225  -12.73579  -13.25090
       O   -15.39180  -13.61549  -13.37361
      H1   -15.02891  -13.94436  -14.24585
       H   -12.71280  -11.69788   -8.85054
       O   -13.22835  -11.09167   -8.34161
      H1   -14.14856  -11.29090   -8.53597
       H   -15.56738  -12.60132   -8.96928
       O   -15.80412  -11.85297   -8.37388
      H1   -16.00642  -12.29818   -7.53234
       H   -14.20809  -16.56028  -13.10928
       O   -13.41519  -16.07616  -12.92164
      H1   -13.77325  -15.22497  -12.85217
       H   -14.17079  -14.36955   -9.47023
       O   -14.95958  -13.95125   -9.84562
      H1   -14.66193  -13.50767  -10.62841
       H    -7.32232  -13.01399   -9.83426
       O    -7.24414  -12.13615  -10.16105
      H1    -7.99556  -11.63186   -9.78944
       H   -11.95996  -14.99630   -8.40405
       O   -12.80221  -14.52483   -8.48239
      H1   -13.13548  -14.37562   -7.62076
       H   -10.88548   -9.92870  -13.46711
       O   -10.40507   -9.19082  -13.88144
      H1    -9.61824   -9.06891  -13.26755

