51
frame 6 | Written by MDAnalysis XYZWriter (release 2.4.3)
       H     1.25205   15.92283   -1.61458
       O     0.44105   15.57624   -1.15518
      H1    -0.05069   15.08455   -1.80874
       H     3.02986   11.88771   -6.30113
       O     3.94756   12.06787   -6.47967
      H1     4.11436   12.91955   -6.98108
       H     2.74616   18.82950   -4.05679
       O     2.19898   18.88088   -3.21667
      H1     1.65696   19.66747   -3.33139
       H     7.72764   11.65022   -5.58079
       O     8.35891   12.39401   -5.40802
      H1     7.88890   13.12212   -5.02037
       H    -0.05534   17.24904   -5.57014
       O     0.44033   16.99369   -4.78985
      H1     0.89054   17.85677   -4.60762
       H     7.10315   18.05759   -3.73998
       O     7.11858   17.21209   -3.40495
      H1     7.19424   17.39068   -2.45380
       H     2.49633   16.90180   -2.78899
       O     2.54587   15.92392   -2.75462
      H1     3.26198   15.71501   -2.07960
       H     0.95539   14.63585   -7.21769
       O     0.33753   14.30695   -7.87041
      H1     0.62642   13.39335   -7.97853
       H     1.12327   12.31880   -4.64899
       O     1.36134   12.26357   -5.56722
      H1     0.63172   11.95986   -6.09327
       H     4.29569   11.65502   -4.00000
       O     4.51801   10.76811   -3.68851
      H1     3.61929   10.55037   -3.34824
       H     6.65055   13.99544   -3.81371
       O     7.40778   14.54758   -3.83093
      H1     7.22702   15.46433   -3.76237
       H     4.08240   17.84872   -5.43505
       O     4.42989   18.39891   -4.70241
      H1     4.45484   17.76694   -3.96253
       H     4.18218   14.66557   -4.20601
       O     4.56348   13.79567   -4.40178
      H1     4.18034   13.52975   -5.25748
       H     4.92014   15.34654   -7.98893
       O     5.02137   14.38689   -7.72292
      H1     5.81824   14.10666   -8.14167
       H     1.64161   15.74466   -5.40497
       O     2.06860   15.02756   -5.96608
      H1     1.71298   14.16196   -5.67862
       H     1.59732   12.22324   -2.35534
       O     0.80999   12.78092   -2.55648
      H1     0.07444   12.23783   -2.22331
       H     3.82431   14.77568    0.24762
       O     4.04072   14.60465   -0.68589
      H1     4.95016   14.91633   -0.70749

