51
frame 6 | Written by MDAnalysis XYZWriter (release 2.4.3)
       H     9.39789   -0.94573   16.01508
       O     9.34180   -1.82954   16.49017
      H1     8.99917   -2.50470   15.95203
       H    11.08826   -9.52249   16.48093
       O    10.69324   -9.25930   17.31811
      H1    10.74814  -10.04950   17.84940
       H    12.40507   -8.49858   17.68919
       O    13.32383   -8.14412   17.61806
      H1    13.39886   -7.61430   18.46868
       H     7.08502   -3.74323   16.63700
       O     7.05158   -3.55769   15.70635
      H1     6.90675   -4.44685   15.33885
       H    13.58678   -5.48808   20.11191
       O    13.92528   -6.08294   19.48800
      H1    14.58988   -5.57796   18.99045
       H     6.70069  -11.63744   18.87088
       O     6.47737  -11.17653   18.03739
      H1     7.19456  -10.59155   17.80012
       H     9.93687   -5.20354   16.75200
       O    10.16044   -4.81021   15.90872
      H1    10.99851   -4.39235   15.91648
       H     6.23753   -3.08097   18.38204
       O     7.09846   -3.58905   18.33965
      H1     7.91677   -3.14387   18.51981
       H    11.07545   -1.72084   16.44957
       O    12.06987   -1.63887   16.37827
      H1    12.25567   -0.79867   16.00919
       H     4.95795   -7.47302   19.14751
       O     4.65072   -6.98425   18.33687
      H1     5.53658   -6.73561   17.97614
       H     8.71167   -5.62740   20.24045
       O     9.35485   -6.20251   19.70092
      H1     8.80516   -6.38532   18.92071
       H    12.81402   -3.13381   16.17019
       O    13.09546   -4.04699   15.92750
      H1    13.49858   -4.50012   16.72761
       H     7.65800   -8.59203   16.83161
       O     8.06426   -9.41143   16.60985
      H1     8.99966   -9.37909   16.91951
       H     8.19364    0.10316   18.56080
       O     7.46089   -0.55865   18.48757
      H1     7.07986   -0.44512   17.57639
       H     3.77192   -2.58901   18.16657
       O     4.63563   -2.44377   18.52950
      H1     4.58211   -1.74027   19.19312
       H     6.38400   -6.50417   14.49187
       O     7.27723   -6.29969   14.81900
      H1     7.78006   -6.76858   14.16937
       H     7.42562   -6.45115   16.69897
       O     7.24363   -6.42925   17.64035
      H1     7.13306   -5.51706   17.91585

