51
frame 6 | Written by MDAnalysis XYZWriter (release 2.4.3)
       H   -12.84287    2.40057   -6.70444
       O   -12.33891    1.63992   -6.25647
      H1   -11.61564    1.53441   -6.90356
       H    -7.01507    2.64048   -4.42631
       O    -6.49677    2.59727   -3.59774
      H1    -6.98143    1.83985   -3.13144
       H   -10.56924    4.15745   -5.03838
       O    -9.85276    4.52581   -5.57812
      H1    -9.72885    5.40662   -5.21817
       H   -14.10249    4.10491   -1.60229
       O   -13.79082    4.51636   -2.40671
      H1   -13.98418    5.45348   -2.25278
       H    -8.15265    1.75955   -6.58834
       O    -7.93252    2.49034   -5.94475
      H1    -8.71553    3.03814   -5.81009
       H   -12.48201   -1.15179   -4.36843
       O   -13.17964   -0.61773   -4.81027
      H1   -12.76916    0.21175   -5.15162
       H    -7.60298   -0.02061   -3.23513
       O    -7.66827    0.56899   -2.46756
      H1    -7.36176    0.12185   -1.73698
       H   -10.63214    0.28365   -1.71465
       O   -11.13516    0.39243   -2.54964
      H1   -10.83736    1.20112   -2.99746
       H    -9.90876   -1.44533   -5.22854
       O    -9.41045   -1.25120   -6.05611
      H1    -9.17630   -2.08681   -6.44180
       H   -11.04880    4.17313    1.45036
       O   -11.59669    4.11248    0.64135
      H1   -11.81835    3.15732    0.61483
       H    -7.58271    4.75010   -1.62700
       O    -8.27102    4.61382   -2.29297
      H1    -7.86917    4.07124   -3.03573
       H   -12.88615    1.09135   -0.17075
       O   -12.51247    1.65438    0.55672
      H1   -11.85667    1.12667    0.99552
       H   -12.09203    2.65734   -4.69687
       O   -11.68662    3.17050   -3.98776
      H1   -12.41471    3.46771   -3.41316
       H   -12.96452    0.09934   -2.05637
       O   -13.74863    0.09380   -1.45722
      H1   -14.38597    0.65993   -1.93942
       H   -10.92876   -1.00459   -3.38526
       O   -10.74559   -1.86295   -3.90194
      H1   -11.06739   -2.54073   -3.28534
       H   -10.08327    3.21356   -0.26572
       O    -9.39884    2.64722   -0.49816
      H1    -9.03000    3.08570   -1.28220
       H    -9.11988   -0.81921   -0.00200
       O    -9.77533   -0.10472   -0.16852
      H1    -9.26412    0.72789   -0.22313

