51
frame 6 | Written by MDAnalysis XYZWriter (release 2.4.3)
       H     7.25616   -8.03319  -13.03942
       O     7.12472   -8.95541  -12.84190
      H1     7.94101   -9.37280  -12.47903
       H     6.42615   -5.62916  -13.65663
       O     7.24305   -6.14953  -13.56585
      H1     7.53778   -5.61689  -12.78174
       H    11.89861  -10.47294  -11.18067
       O    11.57090   -9.54685  -11.17592
      H1    11.92667   -8.99201  -11.89843
       H    11.94741   -8.47660   -9.77476
       O    12.23374   -7.96749   -9.01357
      H1    13.20089   -8.16221   -8.99806
       H     7.53907  -10.11999   -9.60223
       O     7.59684   -9.27000   -9.05222
      H1     7.79303   -8.60478   -9.70339
       H     3.23093   -9.36151   -8.37606
       O     2.96504   -8.49176   -8.64357
      H1     3.72597   -8.06967   -9.07046
       H     6.98687   -5.89187   -8.84818
       O     6.43836   -5.61310   -8.09342
      H1     5.92855   -4.80233   -8.35788
       H    10.68471  -12.69308   -8.53888
       O     9.76341  -12.54924   -8.74900
      H1     9.41866  -13.40967   -8.94743
       H     9.37215   -6.29109   -5.17859
       O    10.02848   -6.95058   -5.20277
      H1    10.04941   -7.19358   -6.11471
       H     8.97508   -6.93691   -9.22429
       O     8.28727   -6.71735   -9.89085
      H1     8.59478   -5.87566  -10.33623
       H     5.79226  -10.21663  -12.94416
       O     5.07356  -10.84694  -12.93244
      H1     4.27504  -10.32966  -12.66645
       H     6.47503  -10.74710   -5.91559
       O     6.99019  -10.02137   -6.23184
      H1     6.73152   -9.93066   -7.10971
       H     4.49794   -6.55841  -13.96317
       O     4.31855   -7.45888  -13.60298
      H1     4.82850   -7.54519  -12.76843
       H    10.70092   -7.98343   -8.27839
       O     9.78712   -7.73363   -7.91639
      H1     9.36869   -8.59738   -7.86227
       H    10.02819  -10.43279  -12.06287
       O     9.24774  -10.76698  -12.48546
      H1     9.63296  -11.58117  -12.90091
       H     9.04054   -4.12237  -11.25787
       O     8.12225   -4.50395  -11.38876
      H1     7.61401   -3.97463  -10.76434
       H     5.48593   -6.72043   -9.20973
       O     5.12496   -7.35473   -9.87026
      H1     5.84278   -7.96926   -9.88121

