51
frame 6 | Written by MDAnalysis XYZWriter (release 2.4.3)
       H    10.62519    8.59189   17.58669
       O     9.69493    8.28420   17.61261
      H1     9.27675    8.74466   18.33544
       H    11.37739   14.19200   18.15880
       O    10.49249   14.20068   18.46911
      H1    10.56038   14.06945   19.39054
       H    12.43752   13.90458   16.28265
       O    12.93631   14.25671   17.08867
      H1    13.30626   13.44745   17.49626
       H     7.85725   13.05221   17.62742
       O     8.29665   12.19542   17.47992
      H1     9.21684   12.49233   17.74398
       H    14.36893   17.33438   19.72362
       O    13.66892   16.65594   19.51073
      H1    13.15326   17.02322   18.82702
       H    10.56766   14.08349   15.07708
       O    11.08845   13.26967   15.32349
      H1    11.76955   13.20071   14.61883
       H    14.93491   14.47829   17.92257
       O    15.44102   15.22558   18.04654
      H1    14.86573   15.73789   18.64606
       H    15.11862    6.90896   18.76065
       O    15.92246    7.13043   18.35507
      H1    15.52125    7.65282   17.65937
       H    14.17909   11.27859   15.53902
       O    13.61417   10.47664   15.58050
      H1    13.45608   10.30581   14.65594
       H    18.08145   14.33718   16.14771
       O    18.05783   15.15463   16.72117
      H1    17.19938   14.96475   17.14890
       H    14.03012   12.22184   19.65170
       O    14.26155   12.36145   18.70421
      H1    15.17423   12.01472   18.71703
       H    17.46465   12.28039   18.25528
       O    16.83809   11.73293   17.72776
      H1    16.50994   12.08733   16.89330
       H    19.23388   13.57579   17.81903
       O    19.13764   13.08522   18.64639
      H1    19.22207   13.76585   19.37369
       H    16.12610   12.02610   14.83413
       O    15.57304   12.34255   15.54547
      H1    15.28123   13.20495   15.26400
       H    14.77319    7.20729   15.70232
       O    14.06753    7.78707   15.99499
      H1    14.12634    8.62978   15.62784
       H    17.41908   10.13447   18.21738
       O    17.74063    9.23977   18.50761
      H1    16.94567    8.79410   18.89650
       H    12.70495    9.58546   17.34297
       O    12.13649    9.29842   18.04773
      H1    12.63668    8.53384   18.35377

