51
frame 6 | Written by MDAnalysis XYZWriter (release 2.4.3)
       H     8.75323   14.88769  -11.32912
       O     8.61562   15.41605  -12.13811
      H1     8.18197   14.91910  -12.80759
       H     6.77184   17.38836  -12.90746
       O     6.85669   17.74870  -13.82959
      H1     7.73032   18.14061  -13.88073
       H    14.05388   12.08724  -11.66386
       O    14.31128   12.67661  -12.38024
      H1    13.80982   13.50311  -12.10801
       H     8.98872   19.50926  -14.58135
       O     9.18187   19.09564  -13.73812
      H1    10.14056   19.16686  -13.52100
       H    11.79478   17.54137   -9.95112
       O    12.28685   16.76283   -9.69184
      H1    12.43916   16.01071  -10.32811
       H    10.63438   12.06813  -10.31490
       O    10.42447   12.91809  -10.86190
      H1    10.29241   12.64916  -11.75974
       H     9.61158   17.42867  -14.17592
       O     9.94935   16.58667  -14.37215
      H1     9.71972   16.01509  -13.58739
       H     7.48604   13.23786  -14.71376
       O     7.71022   14.19184  -14.54573
      H1     7.07594   14.72177  -15.05620
       H     9.25108   16.03966  -16.02286
       O     8.88713   16.17677  -16.89009
      H1     7.93343   15.95806  -16.77224
       H    15.43519   18.85031  -16.33380
       O    14.47814   18.92586  -16.26439
      H1    14.16388   19.16495  -17.15109
       H    11.52829   14.59458  -17.68265
       O    10.71207   14.20768  -18.05510
      H1    10.07601   14.90248  -17.95020
       H    13.63940   14.15832  -17.87529
       O    13.30520   15.06513  -17.65833
      H1    13.51332   15.68460  -18.37859
       H    13.10091   16.43414  -13.97122
       O    12.27718   16.23048  -13.47287
      H1    11.50861   16.44032  -13.98224
       H    10.60095   11.63546  -13.58201
       O     9.75700   11.90677  -13.21296
      H1     9.39166   11.03937  -12.94729
       H    12.06613   19.37273  -14.26351
       O    11.88616   18.95175  -13.36594
      H1    12.03468   18.00531  -13.39960
       H    11.82423   14.19478  -11.07083
       O    12.60709   14.69987  -11.35332
      H1    12.40820   15.10150  -12.19297
       H    14.42784   17.20345  -15.73031
       O    14.61666   16.40807  -15.14996
      H1    14.35016   15.66943  -15.66454

