51
frame 6 | Written by MDAnalysis XYZWriter (release 2.4.3)
       H    11.66351  -16.66872   12.13751
       O    12.15149  -17.03531   11.40626
      H1    11.56665  -17.64556   10.96138
       H    11.37096  -14.13836    2.52609
       O    11.61614  -14.37131    3.44452
      H1    11.48438  -15.30452    3.49113
       H     9.67412  -20.13499    1.80060
       O    10.07814  -19.39759    1.27633
      H1    10.27012  -18.72023    1.92201
       H    19.03281  -18.95018    2.11457
       O    19.44866  -19.45992    2.81248
      H1    18.69529  -20.02087    3.00617
       H    16.83880  -17.75132    9.07595
       O    17.05235  -18.64880    9.46517
      H1    16.65954  -18.72853   10.36432
       H    12.59612  -14.63024    9.31362
       O    12.39145  -14.91983    8.40650
      H1    12.80471  -14.31157    7.75309
       H    15.99329  -15.83339    4.39476
       O    15.70493  -15.52097    3.50481
      H1    15.97880  -14.53469    3.52530
       H    13.15243  -16.59954    8.18739
       O    13.67769  -17.34814    7.85102
      H1    13.70388  -17.94673    8.57568
       H    19.35032  -18.85082    5.68553
       O    18.70942  -18.35698    5.16201
      H1    19.07490  -18.51228    4.26991
       H    14.71667  -18.19368    4.68342
       O    14.59491  -18.87559    5.38318
      H1    14.20932  -18.38438    6.14162
       H    17.17427  -17.16632    1.27311
       O    16.23258  -16.79133    1.31801
      H1    16.13035  -16.37570    2.16167
       H    17.19007  -16.08723    6.62110
       O    17.54560  -15.96786    5.75308
      H1    18.01367  -16.79940    5.67391
       H    10.00733  -19.13053    5.05364
       O     9.29801  -18.64523    5.44924
      H1     9.56162  -18.20369    6.22132
       H    13.54480  -17.90272    2.96163
       O    14.32590  -18.30764    2.72889
      H1    14.85038  -17.73559    2.12075
       H    11.43653  -16.81931    2.04316
       O    11.30956  -17.22028    2.97235
      H1    10.39484  -17.04018    3.12924
       H    16.35787  -15.91536    8.97091
       O    16.40891  -16.49342    8.24320
      H1    15.52974  -16.86158    8.06381
       H     9.21263  -15.71012    7.44872
       O     9.88355  -16.44545    7.60084
      H1    10.76052  -16.00450    7.66989

