51
frame 5 | Written by MDAnalysis XYZWriter (release 2.4.3)
       H     6.14507   19.73750   -5.29073
       O     6.68773   19.22197   -4.69427
      H1     6.30905   18.33289   -4.76194
       H     3.62544   18.41648   -4.60195
       O     3.18833   18.68738   -3.77534
      H1     2.52729   19.35949   -3.99138
       H    10.80674   18.69208   -6.32529
       O    10.89250   18.31444   -7.20669
      H1    11.35373   17.48390   -6.93855
       H     8.65531   15.28813   -9.02134
       O     8.21990   16.00605   -9.50263
      H1     8.92744   16.65539   -9.68538
       H     5.20172   16.17671  -10.06688
       O     5.86494   15.93022  -10.80166
      H1     6.70056   15.93676  -10.27445
       H     3.94425   16.73409   -8.16191
       O     3.96500   15.98503   -8.75492
      H1     4.41154   15.22968   -8.27113
       H     6.02383   17.79626  -10.93595
       O     5.59727   18.64358  -10.84252
      H1     4.76033   18.55129  -11.35113
       H     6.95182   18.76596   -7.54157
       O     7.31114   17.89927   -7.38444
      H1     7.45356   17.46152   -8.24282
       H     5.85400   17.95870   -1.91746
       O     5.21426   18.71437   -1.75941
      H1     4.75510   18.92338   -2.58640
       H    10.15124   14.32502   -7.59841
       O    11.02916   14.67517   -7.64209
      H1    11.36537   15.09373   -6.80417
       H     5.85812   14.10258   -4.12630
       O     6.68247   14.40429   -4.58095
      H1     6.83640   15.31189   -4.23637
       H     4.02804   17.53695   -6.30964
       O     4.59449   17.36630   -5.59716
      H1     4.23613   16.54362   -5.21207
       H     1.94081   18.54468   -7.67133
       O     2.90499   18.38434   -7.43963
      H1     3.24962   19.32336   -7.47952
       H     9.18721   15.91166   -5.67181
       O     9.81330   16.14988   -4.98762
      H1     9.68900   17.09591   -4.84753
       H     9.79181   18.34836   -8.62481
       O     9.33579   18.40853   -9.49390
      H1     9.80228   19.02965  -10.06420
       H     5.76888   14.15752   -6.67370
       O     5.04816   13.82662   -7.26493
      H1     5.61519   13.37449   -7.96580
       H    10.91227   19.20491   -3.93485
       O    10.21834   18.91465   -4.56705
      H1     9.73161   19.66607   -4.78315

