51
frame 5 | Written by MDAnalysis XYZWriter (release 2.4.3)
       H    11.75171   -2.23814   -0.19819
       O    11.84560   -2.27571   -1.20366
      H1    12.75543   -2.67070   -1.39786
       H    16.30055   -4.96900   -3.77055
       O    17.21103   -5.03038   -3.35580
      H1    16.93881   -5.11243   -2.44435
       H    14.05666   -2.70505   -2.76987
       O    14.15849   -3.36814   -2.06407
      H1    13.67204   -4.13556   -2.44462
       H    19.42368   -5.83411   -0.60846
       O    18.45779   -5.74411   -0.83564
      H1    18.30681   -4.91676   -0.40907
       H    15.02719    0.35791   -1.63332
       O    15.83918   -0.20962   -1.77879
      H1    15.78531   -0.59499   -2.64767
       H    12.20059   -4.26836   -0.31506
       O    12.14527   -4.97740    0.36318
      H1    12.85087   -5.57079    0.19915
       H    14.78462    0.55199    0.02911
       O    14.01906    1.16726   -0.05939
      H1    14.33521    1.97417    0.38705
       H    16.45733   -0.08281    3.38501
       O    16.42338    0.05438    2.44981
      H1    15.99351   -0.66209    1.98065
       H    16.90132   -3.08221    0.01048
       O    16.23623   -3.74133   -0.09359
      H1    15.55809   -3.39726   -0.69220
       H    12.92664    0.27486   -1.51474
       O    12.19106    0.34405   -2.10791
      H1    11.65499   -0.51221   -1.96390
       H    14.09675   -4.54919   -5.44392
       O    14.63789   -5.07188   -4.87078
      H1    14.02086   -5.57837   -4.32068
       H    17.82998   -2.71945   -4.29237
       O    17.72379   -2.53119   -5.20548
      H1    17.13721   -1.82898   -5.26868
       H    15.39118   -6.94365    0.51869
       O    14.71879   -6.27444    0.64636
      H1    15.21998   -5.49344    0.56253
       H    15.04091   -2.68713    0.86615
       O    14.81054   -1.73403    1.04275
      H1    14.06372   -1.73339    1.64926
       H    19.34685   -2.73400    0.23795
       O    19.03757   -3.52968    0.74272
      H1    18.90388   -3.11041    1.62605
       H    13.07677   -0.83404   -3.87909
       O    13.87680   -1.38331   -4.02330
      H1    13.62780   -1.92392   -4.78878
       H    17.43610   -7.36965   -0.58923
       O    16.69987   -7.97698   -0.25220
      H1    17.04296   -8.26863    0.61747

