51
frame 6 | Written by MDAnalysis XYZWriter (release 2.4.3)
       H     9.02718  -11.99486    9.55238
       O     9.22239  -12.86218    9.13777
      H1     8.61725  -13.46708    9.64427
       H     8.76134  -13.47446    7.39471
       O     8.21962  -14.04055    6.82033
      H1     8.45123  -13.80214    5.89141
       H     4.42813  -18.67088    5.15711
       O     4.47735  -19.61914    5.46062
      H1     4.08316  -20.11767    4.66707
       H     8.98104  -12.91936    3.98314
       O     8.32902  -13.61983    3.99328
      H1     8.04065  -13.65323    3.04473
       H     5.25402  -12.51501    9.87049
       O     4.86188  -13.32713    9.52681
      H1     5.50236  -13.99284    9.75863
       H     4.18366  -17.47044    7.23470
       O     4.19728  -17.40150    8.23725
      H1     4.48111  -18.25876    8.56096
       H     9.27662  -17.36594    9.14534
       O     9.34460  -17.79793    9.97501
      H1     8.77119  -17.33711   10.51528
       H     4.52927  -15.88160    4.83524
       O     4.27230  -16.81858    5.08044
      H1     3.54681  -17.02480    4.48303
       H     5.34077  -12.05957    6.63836
       O     4.55178  -12.50808    6.88265
      H1     4.62659  -12.85884    7.76687
       H     5.93414  -13.82242    4.56369
       O     5.19585  -14.41204    4.29950
      H1     5.50148  -14.92999    3.54389
       H     3.11226  -16.01598    8.92711
       O     2.98035  -15.45286    9.68206
      H1     3.20148  -14.62135    9.29044
       H    10.00733  -19.13053    5.05364
       O     9.29801  -18.64523    5.44924
      H1     9.56162  -18.20369    6.22132
       H     3.54569  -12.56014    5.24668
       O     2.74287  -12.58800    4.72165
      H1     2.87624  -13.21105    4.03224
       H     7.12856  -15.26101    9.52385
       O     7.35889  -14.65712   10.23941
      H1     7.60236  -15.16158   11.04494
       H     8.81437  -17.23041    4.31958
       O     8.76865  -16.79120    3.45862
      H1     8.65828  -15.91083    3.69922
       H     9.21263  -15.71012    7.44872
       O     9.88355  -16.44545    7.60084
      H1    10.76052  -16.00450    7.66989
       H     6.87808  -15.25668    7.38620
       O     6.68194  -15.97926    8.00545
      H1     5.74121  -16.21456    7.93141

