51
frame 5 | Written by MDAnalysis XYZWriter (release 2.4.3)
       H   -15.38039   13.97376  -14.02217
       O   -16.33104   13.84129  -13.81083
      H1   -16.65674   14.71931  -13.92151
       H   -17.79435   17.36994  -13.79266
       O   -17.45399   16.60103  -14.29134
      H1   -17.61539   16.87389  -15.21686
       H   -16.25966   17.73125  -18.78372
       O   -16.03327   17.24270  -17.96931
      H1   -16.15489   16.29931  -18.21467
       H   -14.72484   20.20596  -16.41366
       O   -14.06138   19.61014  -16.04290
      H1   -14.50864   18.88678  -15.61685
       H   -15.85344   10.62182  -18.69725
       O   -16.67844   10.42273  -18.28219
      H1   -16.41310    9.64830  -17.70349
       H   -12.68114   13.41228  -14.17372
       O   -13.55365   12.95569  -14.25244
      H1   -13.69662   12.76793  -15.20587
       H   -19.45485    8.78124  -17.56071
       O   -19.88552    9.54107  -17.96111
      H1   -19.08899    9.98732  -18.39940
       H   -12.29136   16.31017  -17.86399
       O   -11.55346   15.85858  -17.45901
      H1   -11.57999   14.92761  -17.69205
       H   -11.41381   12.55633  -18.96757
       O   -11.99815   13.28506  -18.81121
      H1   -12.15706   13.61678  -19.69886
       H   -10.56859   11.03641  -16.83244
       O   -10.92981   11.07732  -17.74659
      H1   -11.90393   10.97765  -17.66566
       H   -15.13756   10.53503  -14.97504
       O   -15.67062    9.82053  -14.49539
      H1   -16.40915   10.33338  -14.14496
       H   -18.90334   12.44203  -16.62947
       O   -18.54832   12.61321  -17.53144
      H1   -18.00165   11.90176  -17.81488
       H   -18.95885   17.30039  -17.17297
       O   -18.36163   17.77376  -16.53617
      H1   -17.51787   17.62087  -17.00882
       H   -13.47013   13.41770  -17.87388
       O   -14.07807   13.19144  -17.15596
      H1   -14.99272   13.38498  -17.50287
       H   -13.84581   11.43114  -16.79963
       O   -13.45126   10.63943  -16.39603
      H1   -12.62935   10.93120  -15.97406
       H   -15.67049   17.14417  -14.25809
       O   -14.75333   17.45301  -14.18689
      H1   -14.89039   18.18514  -13.57910
       H   -16.24213   14.19257  -19.05580
       O   -16.43774   14.26126  -18.07253
      H1   -17.12299   13.63206  -17.90952

