51
frame 5 | Written by MDAnalysis XYZWriter (release 2.4.3)
       H    15.13533   -1.40602  -16.62624
       O    14.81993   -0.59778  -16.31833
      H1    15.62430   -0.25149  -15.90645
       H    12.77453    1.41093  -17.06116
       O    13.32677    1.84497  -16.36693
      H1    13.80280    1.10072  -15.97989
       H    13.38159   -0.22338  -10.72813
       O    12.63609    0.32019  -10.42587
      H1    11.82605   -0.18583  -10.47381
       H    16.95095   -5.43106  -13.68227
       O    16.31409   -6.10093  -13.43076
      H1    15.71083   -5.60676  -12.85414
       H    18.32940   -0.55165  -14.67709
       O    17.77482    0.21649  -14.51211
      H1    17.75904    0.72266  -15.36681
       H    14.97521   -2.94745  -14.16527
       O    14.30170   -3.48449  -14.63379
      H1    14.78336   -4.29482  -14.91784
       H    12.24845   -1.50223  -13.63166
       O    12.01786   -2.41855  -13.53819
      H1    12.82256   -2.91053  -13.93342
       H    14.66619   -2.16122  -11.67539
       O    14.12769   -1.94806  -10.90175
      H1    13.82069   -2.79200  -10.61894
       H    17.42295   -3.12813  -10.56523
       O    17.86278   -3.97031  -10.75483
      H1    17.30701   -4.60495  -10.32508
       H    16.66463   -1.98758   -8.92278
       O    16.71359   -1.45381   -9.75004
      H1    15.86334   -1.68723  -10.18555
       H    15.40210    1.19192  -12.96712
       O    14.90778    0.48059  -13.25845
      H1    13.92906    0.55581  -13.18081
       H    16.72594    3.52519  -12.91321
       O    16.30811    2.85174  -12.31992
      H1    15.75290    3.49663  -11.83406
       H    18.68386   -3.29670  -13.57185
       O    18.11089   -4.07192  -13.43396
      H1    17.82621   -4.13139  -12.52290
       H    19.01367    0.41747  -11.30503
       O    18.98933   -0.29275  -10.65599
      H1    18.04413   -0.30468  -10.37985
       H    16.93884   -2.58598  -13.47622
       O    16.07273   -2.30791  -13.05446
      H1    15.96049   -1.37753  -13.23381
       H    11.66854    1.69484  -13.18521
       O    11.91154    0.75309  -13.01521
      H1    12.16578    0.74569  -12.05777
       H    18.62188    1.21652  -13.43079
       O    19.25916    1.78357  -13.04526
      H1    20.14576    1.54946  -13.30800

