51
frame 6 | Written by MDAnalysis XYZWriter (release 2.4.3)
       H   -18.14806  -13.43422  -10.78691
       O   -17.31689  -13.17495  -11.24633
      H1   -17.01490  -12.32236  -10.82802
       H   -12.54074  -19.36096   -8.58749
       O   -12.71486  -18.61439   -7.94568
      H1   -12.97872  -17.85486   -8.50059
       H   -12.35441  -16.88818  -14.06413
       O   -11.42509  -16.64000  -14.26871
      H1   -11.48436  -16.06860  -15.05680
       H   -17.57893  -15.63182   -8.18019
       O   -17.03464  -16.34566   -8.52307
      H1   -16.77150  -16.11225   -9.42239
       H   -18.32476  -13.96602  -16.41618
       O   -19.11769  -14.38750  -16.81775
      H1   -18.90314  -15.28566  -16.52305
       H   -16.87748  -18.96000   -7.44085
       O   -16.16003  -18.86283   -8.10954
      H1   -16.32623  -17.97480   -8.42717
       H   -17.95493  -17.47008   -7.23625
       O   -18.41329  -18.13660   -6.70965
      H1   -18.95123  -17.65206   -6.07024
       H   -17.14732  -17.82449  -16.62341
       O   -16.53457  -18.31841  -17.18608
      H1   -15.83060  -17.64666  -17.41783
       H   -15.80253  -15.90799  -13.11654
       O   -15.67419  -15.75828  -14.03722
      H1   -15.03152  -15.02632  -14.04990
       H   -19.57583  -15.10176   -7.39592
       O   -18.91883  -14.44263   -7.16329
      H1   -18.67676  -14.65443   -6.23416
       H   -13.70601  -19.67153  -11.52124
       O   -14.47593  -19.39845  -12.06604
      H1   -14.20359  -18.72089  -12.70465
       H   -17.88478  -17.95292  -10.96909
       O   -17.42527  -18.26731  -11.77362
      H1   -16.51350  -18.49191  -11.54257
       H   -18.58886  -17.32788  -14.94982
       O   -18.09373  -16.65197  -15.42918
      H1   -17.32062  -16.41777  -14.91349
       H   -18.92479  -19.38539  -15.26602
       O   -19.68591  -18.91141  -14.94881
      H1   -19.67653  -19.26762  -14.06620
       H   -14.26876  -18.52258  -14.75060
       O   -14.01026  -17.82125  -14.16708
      H1   -14.63645  -17.05844  -14.30936
       H   -15.21990  -15.74174  -10.67749
       O   -16.15477  -15.75254  -10.99755
      H1   -16.46202  -14.76005  -11.01368
       H   -15.14064  -15.76155   -8.46180
       O   -14.22814  -15.75040   -8.57327
      H1   -13.81418  -15.48717   -7.70069

