51
frame 5 | Written by MDAnalysis XYZWriter (release 2.4.3)
       H     9.27335  -12.09307    8.24962
       O     9.35659  -13.03550    8.11296
      H1     8.68420  -13.59859    8.49566
       H     9.45920   -8.85043    7.07079
       O     8.88076   -8.37658    6.51712
      H1     9.23702   -8.12737    5.63797
       H     8.38788  -11.22790   11.43438
       O     8.80330  -10.79727   10.65469
      H1     9.19186   -9.95777   10.95118
       H     9.27263  -14.21706    6.67868
       O     9.06176  -14.61372    5.83784
      H1     8.48262  -13.97693    5.36656
       H    13.35434   -8.73054    6.57188
       O    13.65947   -9.64128    6.57824
      H1    14.62120   -9.58974    6.61125
       H    14.24600  -13.56030   10.19275
       O    14.40828  -12.81855    9.60483
      H1    13.68387  -12.65486    8.95294
       H    12.93818  -11.56619    3.79337
       O    12.51486  -10.82742    4.30890
      H1    13.11178  -10.40648    4.91287
       H    14.52862   -8.50536    9.69801
       O    14.94543   -9.27836    9.29604
      H1    14.22083   -9.73673    8.85728
       H    11.09562  -11.15889   12.32593
       O    11.52383  -10.27771   12.50440
      H1    12.48951  -10.41415   12.33522
       H    10.93133   -9.14724   11.29900
       O    10.26440   -8.53343   10.94410
      H1    10.78475   -7.70011   10.66527
       H    15.54914  -13.19683    8.26090
       O    16.29609  -13.35098    7.61324
      H1    16.84922  -12.56846    7.70392
       H    13.66269  -14.99556    8.73160
       O    13.75672  -15.26636    7.82334
      H1    14.60691  -14.97484    7.64444
       H    14.40784   -9.88990   12.55838
       O    14.06234  -10.45836   11.86331
      H1    14.50475  -10.19622   11.03112
       H    13.52536  -16.07947   11.18757
       O    13.68237  -15.17298   10.97959
      H1    13.71472  -14.74073   11.89218
       H     9.81894  -16.05521    7.14935
       O    10.53089  -16.38681    7.64777
      H1    11.32976  -15.97677    7.46675
       H    11.27392  -12.58761    7.93759
       O    12.15929  -12.21547    7.97722
      H1    12.54671  -12.28458    7.06067
       H    10.56395   -9.51857    9.13552
       O    10.64186   -9.78106    8.21207
      H1    11.47579  -10.28326    8.19973

