51
frame 6 | Written by MDAnalysis XYZWriter (release 2.4.3)
       H    11.89861  -10.47294  -11.18067
       O    11.57090   -9.54685  -11.17592
      H1    11.92667   -8.99201  -11.89843
       H    11.94741   -8.47660   -9.77476
       O    12.23374   -7.96749   -9.01357
      H1    13.20089   -8.16221   -8.99806
       H     7.53907  -10.11999   -9.60223
       O     7.59684   -9.27000   -9.05222
      H1     7.79303   -8.60478   -9.70339
       H     6.98687   -5.89187   -8.84818
       O     6.43836   -5.61310   -8.09342
      H1     5.92855   -4.80233   -8.35788
       H     9.37215   -6.29109   -5.17859
       O    10.02848   -6.95058   -5.20277
      H1    10.04941   -7.19358   -6.11471
       H     8.61058  -11.25775   -6.02868
       O     9.36508  -11.83917   -5.95246
      H1     9.40379  -12.20895   -6.86760
       H     8.97508   -6.93691   -9.22429
       O     8.28727   -6.71735   -9.89085
      H1     8.59478   -5.87566  -10.33623
       H    13.30375   -6.03030   -8.88337
       O    13.94109   -5.36872   -8.78335
      H1    13.36921   -4.63269   -8.35143
       H     6.47503  -10.74710   -5.91559
       O     6.99019  -10.02137   -6.23184
      H1     6.73152   -9.93066   -7.10971
       H    12.39494   -4.03147   -6.45892
       O    12.24659   -3.62302   -7.36127
      H1    12.35835   -2.66673   -7.10646
       H    13.42913   -5.55834  -11.50675
       O    12.64695   -5.63055  -11.95391
      H1    11.93334   -5.36784  -11.40783
       H    10.70092   -7.98343   -8.27839
       O     9.78712   -7.73363   -7.91639
      H1     9.36869   -8.59738   -7.86227
       H    11.56438   -4.53542   -4.02815
       O    12.00660   -4.72500   -4.85028
      H1    11.58835   -5.47750   -5.20803
       H     6.35219   -8.82135   -4.84278
       O     5.57294   -8.61957   -4.29809
      H1     5.76586   -8.13782   -3.48182
       H     5.48593   -6.72043   -9.20973
       O     5.12496   -7.35473   -9.87026
      H1     5.84278   -7.96926   -9.88121
       H     7.42622   -5.14879   -6.52152
       O     7.65196   -5.24610   -5.61758
      H1     8.05563   -4.40356   -5.38809
       H     9.97603   -9.06134   -2.28494
       O     9.65269   -8.11808   -2.46373
      H1     9.69252   -7.93405   -3.37609

