51
frame 7 | Written by MDAnalysis XYZWriter (release 2.4.3)
       H     5.15208  -13.72760   12.41251
       O     5.97328  -14.15302   12.59245
      H1     6.00440  -14.81822   11.85345
       H     0.19394  -10.19779   17.00836
       O    -0.17474   -9.37624   16.66005
      H1    -0.53137   -8.77927   17.35340
       H     6.60693  -11.72934   18.55498
       O     6.27366  -11.38341   17.70091
      H1     6.71330  -10.58115   17.52287
       H     4.74411   -9.85952   14.61163
       O     5.05288   -9.25815   13.89450
      H1     4.51013   -9.40624   13.12704
       H     3.66360   -9.98145   16.39386
       O     4.10010  -10.73430   16.00559
      H1     4.84817  -11.06106   16.59967
       H     7.88551  -12.02598   13.30140
       O     8.41482  -12.71032   12.77864
      H1     7.69944  -13.39581   12.61706
       H     3.46186   -9.43960   19.63698
       O     2.50924   -9.44353   19.53093
      H1     2.32935   -9.11768   18.68894
       H     4.23198   -6.26256   13.32905
       O     4.38748   -6.53283   14.25789
      H1     4.58609   -7.47454   14.15764
       H     4.53431   -7.21675   19.28114
       O     4.28761   -6.65454   18.54417
      H1     5.12775   -6.66379   18.04741
       H     3.04363  -13.79401   16.56064
       O     2.54291  -13.04159   16.23163
      H1     3.21554  -12.29131   16.31543
       H     7.48042   -8.29171   17.25526
       O     7.69071   -9.09010   16.79402
      H1     8.55953   -9.45121   17.02430
       H     6.49621  -13.43828   16.84735
       O     6.53365  -14.23680   17.42138
      H1     5.67776  -14.64887   17.39803
       H     7.58760  -10.33950   15.21542
       O     7.38601  -10.68145   14.34355
      H1     6.51956  -10.25039   14.18623
       H     3.17444  -16.03018   17.68755
       O     3.87045  -15.53244   17.27488
      H1     3.84006  -15.73018   16.34163
       H     6.22717   -6.59824   14.66827
       O     7.07547   -6.53163   15.12755
      H1     7.37375   -7.42518   15.07753
       H     2.36827   -8.03166   16.26205
       O     2.93773   -8.56990   16.90259
      H1     3.34608   -7.82568   17.44199
       H     1.35134  -12.25503   17.37173
       O     0.61826  -11.89737   17.96161
      H1     0.99702  -11.89622   18.85561

