51
frame 0 | Written by MDAnalysis XYZWriter (release 2.4.3)
       H    15.92949   -4.74167    2.33508
       O    16.00466   -5.03567    1.35516
      H1    15.08927   -5.42973    1.18618
       H    17.25766   -9.52996   -0.00490
       O    17.28958   -8.96834    0.77296
      H1    16.67159   -9.34757    1.38205
       H    13.08559   -4.32338   -1.75189
       O    12.25893   -4.02130   -1.30400
      H1    11.63610   -3.99749   -2.05113
       H    14.55240   -6.61656    4.45469
       O    13.76318   -6.06655    4.55963
      H1    13.38272   -6.37016    5.41839
       H    14.12374   -9.31413    1.91104
       O    15.01221   -9.32978    2.23956
      H1    15.14723   -8.54133    2.75786
       H    17.26799   -4.12644   -1.71925
       O    16.74736   -3.69066   -2.43533
      H1    16.32286   -2.96595   -1.93353
       H    17.02090   -7.29250    3.99181
       O    16.13166   -7.78215    3.98245
      H1    16.07931   -8.08753    4.87314
       H    14.19431   -4.35808    4.51656
       O    14.35875   -3.36685    4.55234
      H1    15.11452   -3.29997    5.13016
       H    13.17017   -8.91129   -0.35984
       O    13.49058   -8.13678   -0.84289
      H1    14.44591   -8.21079   -1.00327
       H    14.42460   -3.60873    1.00691
       O    14.02068   -2.75701    0.97709
      H1    14.15820   -2.37288    0.16599
       H    19.34337   -3.95184    3.59542
       O    18.38287   -4.01100    3.51087
      H1    17.98141   -3.56472    4.30438
       H    13.01808   -5.26833   -0.12298
       O    13.57827   -5.77546    0.48635
      H1    13.65891   -6.60607   -0.01867
       H    15.17665   -1.47016    2.70563
       O    15.20778   -0.53134    2.76943
      H1    14.33252   -0.14270    2.83416
       H    18.85032   -7.17189    2.69604
       O    18.53070   -6.72918    3.55702
      H1    18.35184   -5.83398    3.26724
       H    17.17169   -2.60635    1.00220
       O    17.86027   -2.24633    1.51117
      H1    18.09305   -2.95935    2.09178
       H    12.07148   -6.37604    1.54043
       O    11.47986   -6.86668    2.16809
      H1    11.87113   -7.71769    2.42311
       H    16.61571   -7.51059   -2.31493
       O    16.11407   -7.76936   -1.50353
      H1    16.84492   -7.85226   -0.83006

