51
frame 7 | Written by MDAnalysis XYZWriter (release 2.4.3)
       H     3.62646   -5.37751   -6.33359
       O     3.23838   -4.47882   -6.41579
      H1     3.22577   -4.45430   -7.37656
       H     5.21026   -2.28738   -2.43355
       O     4.66374   -2.76986   -3.01929
      H1     4.87942   -3.73932   -2.96648
       H     1.21038   -7.41711   -3.48364
       O     1.21970   -6.51807   -3.83080
      H1     1.94400   -6.57743   -4.41400
       H     0.04892   -5.51427   -6.14110
       O    -0.13238   -4.81594   -5.48707
      H1     0.51512   -4.91443   -4.80064
       H     1.85413   -2.10855   -0.66988
       O     2.42903   -2.84007   -0.98652
      H1     2.39376   -2.58569   -1.90792
       H     1.96931   -4.41348   -1.38815
       O     1.94694   -5.37584   -1.46243
      H1     1.50998   -5.61914   -2.28645
       H     2.78609   -2.68046   -4.05161
       O     1.91206   -2.44034   -3.82750
      H1     1.54277   -2.16358   -4.67412
       H     8.34786   -7.22600   -5.66809
       O     9.22559   -7.64845   -5.80753
      H1     9.11942   -7.97485   -6.71030
       H     4.33402   -8.08960   -5.56998
       O     3.56817   -7.44567   -5.58015
      H1     2.96458   -7.86358   -6.24378
       H     6.67535   -2.70601   -5.08700
       O     7.58697   -2.92956   -4.77228
      H1     7.81585   -2.26732   -4.09848
       H     3.96178   -6.08631   -3.25273
       O     4.79570   -5.57968   -3.29580
      H1     5.29666   -5.89036   -4.05599
       H     3.93340   -8.38090   -0.52457
       O     3.92535   -7.45413   -0.35443
      H1     3.38942   -6.89368   -0.94080
       H     4.82778   -3.26621   -5.72646
       O     5.13497   -2.32837   -5.70396
      H1     4.90677   -1.99732   -4.78560
       H     4.09144   -4.07555   -0.48664
       O     4.79697   -4.19221    0.18216
      H1     5.12702   -5.03351    0.17344
       H     6.38029   -9.81032   -6.42192
       O     5.69253   -9.69966   -5.76448
      H1     6.19950   -9.41806   -5.02471
       H     6.39300   -7.47346   -3.25833
       O     6.41299   -8.47189   -3.27799
      H1     5.70129   -8.76295   -2.73032
       H     6.53939   -5.59970   -6.10943
       O     6.79803   -5.73356   -5.22331
      H1     7.30236   -4.90071   -5.10336

