51
frame 7 | Written by MDAnalysis XYZWriter (release 2.4.3)
       H     8.85196   13.48399  -12.01382
       O     8.39274   13.90910  -12.72539
      H1     7.52918   13.41652  -12.73292
       H    13.43656   11.18880  -11.77519
       O    13.82527   11.91818  -12.31631
      H1    13.49978   12.70171  -11.91021
       H     9.51377   11.12553   -8.03575
       O     9.84063   12.03602   -8.27583
      H1     9.63025   12.56249   -7.49753
       H    12.72363   17.97418  -10.22748
       O    12.08379   17.27419   -9.96219
      H1    12.24807   16.52403  -10.55555
       H    10.10522   12.34045  -10.24906
       O    10.26996   12.96122  -10.95193
      H1    10.47469   12.36551  -11.72575
       H    12.11705    9.64614  -10.88118
       O    13.00133    9.97941  -10.68280
      H1    12.97213   10.53676   -9.90794
       H     8.96409   17.29978  -13.78038
       O     9.53631   16.54044  -13.69455
      H1     9.01480   15.85287  -13.17607
       H     9.82491   15.51354   -9.13087
       O     9.27870   16.02768   -9.76191
      H1     9.77313   16.28498  -10.57160
       H     7.49975   16.24239  -10.66153
       O     6.82474   15.79166  -11.16650
      H1     7.23992   15.10625  -11.67212
       H    10.32858    8.90622   -8.79407
       O    10.53069    8.72845   -9.72882
      H1    10.80346    7.79400   -9.78140
       H    13.28045   11.98875   -7.91063
       O    12.79725   11.19595   -8.18547
      H1    11.86376   11.30711   -7.98586
       H    11.41486   13.84189   -8.49099
       O    11.18528   14.75122   -8.33240
      H1    12.11479   15.09638   -8.38655
       H    11.03213   10.85976  -13.73399
       O    10.29782   11.13778  -13.17089
      H1    10.13812   10.28049  -12.77531
       H     7.24572   11.08390  -11.04716
       O     7.12021   10.76984  -11.93174
      H1     6.58438   11.51982  -12.25537
       H     5.83679   12.85442  -10.05219
       O     6.81989   12.68909   -9.97871
      H1     6.91136   12.43752   -9.07935
       H    11.54838   14.25626  -11.03769
       O    12.32666   14.76578  -11.29635
      H1    12.04650   15.12403  -12.18397
       H     9.17315   10.96197  -14.57840
       O     8.72331   11.08075  -15.44840
      H1     8.78112   10.19948  -15.91762

