51
frame 7 | Written by MDAnalysis XYZWriter (release 2.4.3)
       H     8.77381    8.58170  -12.82964
       O     9.78615    8.57785  -12.96910
      H1    10.09163    8.22604  -12.08567
       H    13.00906    9.03858  -13.98269
       O    12.56465    9.89548  -14.09692
      H1    13.22779   10.55334  -13.72636
       H    13.43656   11.18880  -11.77519
       O    13.82527   11.91818  -12.31631
      H1    13.49978   12.70171  -11.91021
       H    14.52465    8.77010   -8.71632
       O    14.44482    8.09941   -9.39309
      H1    13.88381    8.59406  -10.02525
       H    12.92426    3.83844  -13.58776
       O    12.65663    4.02594  -12.68589
      H1    11.73455    4.03894  -12.77390
       H    12.11705    9.64614  -10.88118
       O    13.00133    9.97941  -10.68280
      H1    12.97213   10.53676   -9.90794
       H    14.47050    7.10014  -12.53950
       O    13.59330    7.41293  -12.75659
      H1    12.97302    7.14459  -12.08793
       H    16.39955    7.79541  -15.50992
       O    15.84644    8.59225  -15.35496
      H1    15.29906    8.68906  -16.13286
       H    18.45991    6.06998  -12.93768
       O    18.98143    5.47080  -12.36287
      H1    18.66252    4.58652  -12.54247
       H    16.57503    7.88608  -12.01488
       O    16.36073    7.19772  -12.61429
      H1    16.26975    7.54783  -13.48489
       H    15.85231    2.81239  -13.56576
       O    16.00831    2.06794  -13.01845
      H1    16.23211    1.39425  -13.62039
       H    10.65653    5.82546  -11.72603
       O    11.28988    6.48687  -11.36510
      H1    11.89886    5.95598  -10.81737
       H    15.82340    8.72853  -10.13993
       O    16.64806    9.12903  -10.48491
      H1    16.49338    9.94719  -11.03090
       H    17.83897    5.76500  -15.89744
       O    17.85690    6.31805  -15.13858
      H1    18.65576    6.77464  -15.32507
       H    15.92539    5.35842  -14.58796
       O    15.38539    4.59637  -14.33550
      H1    14.68577    4.84927  -13.77669
       H    13.62674    6.58253   -9.43328
       O    13.31741    5.69414   -9.77545
      H1    14.02043    5.22725  -10.20543
       H    16.67939    5.15782  -11.14372
       O    16.17316    4.46352  -10.66300
      H1    16.16157    3.69154  -11.27402

