51
frame 7 | Written by MDAnalysis XYZWriter (release 2.4.3)
       H     3.38550   12.31990   -6.65490
       O     3.93761   13.01212   -6.97980
      H1     3.49251   13.89289   -6.85976
       H    -0.48519    8.98383   -4.88695
       O    -0.76746    8.72641   -5.78435
      H1    -0.62553    9.44525   -6.38807
       H    -0.11756   16.41063   -5.63581
       O    -0.67133   16.79596   -4.97150
      H1    -0.70155   17.75457   -5.15385
       H     1.58430   14.07640   -6.24392
       O     1.47753   14.45045   -7.12849
      H1     1.64430   13.70997   -7.73508
       H     2.29997   10.48903   -5.01431
       O     2.08401   11.10777   -5.72368
      H1     1.16519   11.31688   -5.56422
       H    -1.56122   11.64073  -10.50051
       O    -1.05812   11.62049  -11.35613
      H1    -1.43282   12.23591  -11.95647
       H    -3.15642   16.08283   -5.53009
       O    -3.90589   16.69009   -5.49958
      H1    -4.44427   16.54885   -4.71484
       H    -1.15371   10.83397   -8.11689
       O    -0.38197   10.64815   -7.55026
      H1     0.31653   10.47225   -8.19791
       H     1.72634   13.17754  -10.61371
       O     1.92071   13.40313   -9.69785
      H1     1.97405   14.38078   -9.75399
       H     2.21724   14.46359   -3.79106
       O     2.11782   13.87158   -4.55948
      H1     2.24489   12.96582   -4.28974
       H    -1.94167   13.88127   -6.30404
       O    -1.58447   14.00134   -7.19406
      H1    -0.62664   13.89396   -7.18184
       H    -2.42229   14.91446  -11.82709
       O    -3.21864   15.37345  -11.40433
      H1    -2.96492   15.83038  -10.59592
       H    -2.73373   13.49601   -3.85306
       O    -2.10227   14.02388   -4.43548
      H1    -1.58251   14.50295   -3.81254
       H     2.85724   10.55965   -8.16620
       O     2.24653   10.83385   -8.88883
      H1     2.36801   11.79651   -8.87664
       H    -3.12889   12.55597   -9.59200
       O    -2.52693   12.05159   -9.02431
      H1    -2.32948   12.75456   -8.35854
       H    -2.66896   15.37839   -8.29340
       O    -2.89913   16.15513   -8.81017
      H1    -2.56991   16.90388   -8.30319
       H     0.83356   15.86860   -7.61968
       O     0.46773   16.74180   -7.71004
      H1    -0.05950   16.73721   -8.52434

