51
frame 7 | Written by MDAnalysis XYZWriter (release 2.4.3)
       H   -14.61384  -14.25401   -0.72281
       O   -15.26167  -13.66188   -1.10049
      H1   -16.13325  -14.06347   -1.01871
       H   -16.83247  -15.25260   -8.14518
       O   -17.01123  -16.21314   -8.17735
      H1   -16.50373  -16.62291   -8.93217
       H   -16.78664  -15.74052   -3.94685
       O   -17.66078  -15.37368   -4.14068
      H1   -18.26525  -16.15750   -4.09350
       H   -15.47466  -18.72179    0.15611
       O   -15.13902  -17.77466    0.25682
      H1   -14.85895  -17.88704    1.12453
       H   -15.35907  -17.97973    3.22245
       O   -14.38706  -17.94438    3.13550
      H1   -14.05080  -18.76761    3.53402
       H   -14.53429  -19.38050   -8.00560
       O   -13.77014  -18.92621   -8.34670
      H1   -13.64582  -18.05774   -7.93493
       H   -18.41566  -17.63401   -7.16255
       O   -18.58681  -18.44631   -6.65609
      H1   -18.76758  -18.12701   -5.73638
       H   -18.64297  -13.85509   -1.42845
       O   -17.85958  -14.15389   -1.83900
      H1   -18.05437  -14.58165   -2.71339
       H   -17.48994  -12.40749   -2.49180
       O   -17.72562  -11.48030   -2.53081
      H1   -18.67510  -11.43356   -2.40950
       H   -17.48192  -15.89637   -1.13678
       O   -17.56325  -16.79661   -0.75134
      H1   -16.72064  -17.08511   -0.37315
       H   -19.11915  -14.25825   -6.55555
       O   -18.86024  -13.42756   -6.08054
      H1   -18.51859  -13.89021   -5.31864
       H   -17.92702  -18.26822   -2.01769
       O   -18.12549  -19.10220   -2.51877
      H1   -17.31083  -19.62882   -2.40896
       H   -13.59130  -18.92322   -5.19184
       O   -13.02469  -18.19956   -5.32982
      H1   -13.46339  -17.52039   -5.82506
       H   -12.28278  -17.22315   -2.52215
       O   -12.07949  -16.69206   -3.28999
      H1   -12.41486  -17.20074   -4.03298
       H   -14.68330  -14.59240   -4.34421
       O   -14.87171  -15.37336   -3.86890
      H1   -14.03349  -15.63348   -3.48371
       H   -11.95218  -17.85895   -0.27387
       O   -12.53753  -18.26198   -0.90604
      H1   -13.35259  -18.05992   -0.49728
       H   -15.12452  -16.41557   -7.70209
       O   -14.20850  -16.27396   -7.41209
      H1   -13.97627  -15.29706   -7.63542

