51
frame 7 | Written by MDAnalysis XYZWriter (release 2.4.3)
       H     9.55941   -4.42895  -15.59991
       O     9.10230   -3.74014  -16.01615
      H1     8.44641   -3.46460  -15.33349
       H     9.64421   -7.02634  -16.31557
       O     9.79354   -7.50743  -17.14489
      H1     9.43189   -6.99189  -17.87338
       H     3.54143   -3.87758  -18.80961
       O     4.20507   -4.50829  -18.56581
      H1     4.53090   -4.94830  -19.36531
       H     9.05567   -1.01056  -19.59230
       O     9.24832   -1.41124  -18.72244
      H1     9.39272   -2.34419  -18.95122
       H    10.79742   -0.73026  -17.64571
       O    11.47523   -0.29063  -17.13135
      H1    11.09349   -0.56543  -16.30231
       H     4.80230   -5.86986  -16.94502
       O     5.51150   -6.04723  -16.33411
      H1     6.22123   -5.65679  -16.82527
       H    12.27693   -5.09331  -17.20153
       O    11.80774   -4.41374  -16.70551
      H1    12.51624   -4.05638  -16.12416
       H     6.62400   -3.22540  -14.16933
       O     7.38841   -2.66864  -14.35857
      H1     6.99605   -1.92936  -14.78230
       H     6.32195   -8.51039  -14.40106
       O     6.52127   -8.48623  -15.36752
      H1     6.14449   -7.62751  -15.70641
       H     4.79070   -8.44536  -17.97665
       O     5.14142   -8.43619  -18.90300
      H1     6.15167   -8.41537  -18.81625
       H     7.19721   -8.93455  -17.19278
       O     7.75380   -9.04469  -18.00740
      H1     8.55701   -8.57631  -17.77777
       H    10.69654   -1.57489  -13.79026
       O    10.39106   -1.31203  -14.65908
      H1    10.10810   -2.20215  -15.02569
       H     4.42462   -3.68741  -13.81686
       O     5.17730   -4.30292  -14.03298
      H1     4.91692   -4.83396  -14.81259
       H    10.18138   -6.54371  -13.92148
       O     9.46878   -6.17070  -14.51110
      H1     8.62325   -6.28150  -14.03456
       H    10.21672   -4.84270  -19.37675
       O    10.68533   -4.03677  -19.07042
      H1    11.15053   -4.19344  -18.23947
       H     8.13395   -4.42477  -17.31900
       O     7.55559   -4.94162  -17.89089
      H1     7.05183   -4.27153  -18.42582
       H     3.80614   -1.52038  -16.72448
       O     3.84704   -1.34675  -17.65499
      H1     4.02006   -0.39781  -17.82479

