51
frame 7 | Written by MDAnalysis XYZWriter (release 2.4.3)
       H     9.51377   11.12553   -8.03575
       O     9.84063   12.03602   -8.27583
      H1     9.63025   12.56249   -7.49753
       H     7.60207   12.58079   -5.86421
       O     8.49314   12.74579   -5.54528
      H1     8.37559   13.60213   -5.09469
       H    10.38706   11.36912   -3.30368
       O     9.41004   11.21032   -3.42776
      H1     9.21012   11.84765   -4.17367
       H    10.75457   18.18815   -6.71593
       O    11.12487   18.61848   -7.54899
      H1    11.19079   17.92763   -8.24740
       H     9.82491   15.51354   -9.13087
       O     9.27870   16.02768   -9.76191
      H1     9.77313   16.28498  -10.57160
       H    11.03868   17.82310   -2.13093
       O    11.10702   18.48340   -2.87158
      H1    11.96082   18.87417   -2.71865
       H     7.72614   18.05456   -8.19185
       O     7.93081   17.19240   -7.85182
      H1     8.53912   16.87012   -8.52323
       H    11.41486   13.84189   -8.49099
       O    11.18528   14.75122   -8.33240
      H1    12.11479   15.09638   -8.38655
       H    12.55482   14.44359   -0.31094
       O    12.96240   13.72601   -0.87663
      H1    12.25254   13.73439   -1.62337
       H     6.92608   14.51767   -3.70980
       O     7.78035   14.99274   -4.02043
      H1     7.60362   15.94267   -4.10099
       H    10.79930   15.01951   -3.69950
       O    10.48647   14.60243   -2.83532
      H1     9.48319   14.64037   -2.93247
       H    14.28043   13.04143   -6.32663
       O    13.99125   13.45581   -7.16962
      H1    14.77085   13.76513   -7.68376
       H    10.79754   14.75372   -6.22903
       O    11.00981   15.35510   -5.47247
      H1    10.59493   16.21144   -5.47213
       H    13.13485   19.63295   -5.88972
       O    13.67961   18.86315   -5.57169
      H1    13.42084   18.19324   -6.20214
       H    10.10482   18.23365   -4.44443
       O     9.84901   17.90039   -5.27077
      H1     9.05025   18.41299   -5.56700
       H    14.72703   17.74956   -4.34679
       O    15.45838   17.69166   -3.67701
      H1    15.68381   16.76760   -3.57668
       H    13.90389   15.47103   -6.72433
       O    13.41406   16.28872   -6.53099
      H1    12.61979   15.96506   -6.12566

