51
frame 6 | Written by MDAnalysis XYZWriter (release 2.4.3)
       H    -8.16751   -5.85581    6.16542
       O    -8.47363   -4.93833    5.96639
      H1    -7.68141   -4.41022    5.88507
       H    -2.82481    1.98396    4.38058
       O    -3.80160    1.91901    4.29817
      H1    -3.83460    1.24076    3.57998
       H    -5.64595   -6.72119    5.58136
       O    -5.59600   -5.69888    5.57934
      H1    -6.26138   -5.38330    4.95702
       H    -4.36172    1.35479    1.34444
       O    -3.79956    0.66165    1.74714
      H1    -4.13739   -0.21137    1.31447
       H    -7.83185   -1.79368    5.85246
       O    -7.50444   -2.42244    5.20199
      H1    -7.76918   -2.15793    4.33264
       H    -5.82550   -1.77083    9.05657
       O    -5.56823   -2.61787    9.48965
      H1    -5.02500   -2.29561   10.22936
       H    -6.92564    0.49629    3.76984
       O    -7.11028    0.26079    2.86703
      H1    -7.16355    1.13976    2.40426
       H    -5.66592    0.35471    6.58908
       O    -5.77290    0.78490    5.70500
      H1    -4.99087    1.30755    5.48833
       H    -4.79772   -0.74773    5.20011
       O    -4.73232   -1.74720    5.06278
      H1    -5.71892   -1.93540    4.99080
       H    -6.17812   -4.73345    2.09363
       O    -7.00311   -4.55619    2.66120
      H1    -7.08502   -3.61285    2.83877
       H    -3.23027   -4.34639    5.86440
       O    -2.69942   -5.00491    6.30991
      H1    -3.28639   -5.31721    7.03114
       H    -3.18793   -5.87769    3.21592
       O    -4.02963   -6.33712    3.34137
      H1    -4.42264   -5.78562    4.01576
       H    -1.99543   -1.66502    2.36693
       O    -1.16026   -1.53035    1.94212
      H1    -1.09243   -2.16704    1.22070
       H    -5.18597   -3.96425    8.38970
       O    -5.05979   -4.93658    8.21699
      H1    -5.30546   -5.15134    7.26571
       H    -4.00816   -2.27973    3.70951
       O    -3.55496   -2.81118    2.94812
      H1    -4.03085   -2.39017    2.21385
       H    -7.30417   -0.29043    8.11321
       O    -6.37579   -0.26471    8.31603
      H1    -6.45353   -0.24727    9.30546
       H    -2.24500   -4.15444    2.97458
       O    -1.73344   -4.89713    2.60692
      H1    -1.09496   -5.21731    3.27962

