51
frame 7 | Written by MDAnalysis XYZWriter (release 2.4.3)
       H     8.65229   16.44477    3.32088
       O     8.62650   17.38902    3.62644
      H1     8.47659   17.40523    4.58649
       H    14.02648   16.72554    2.97119
       O    14.20572   15.83161    2.67014
      H1    15.12975   15.78002    2.50653
       H    13.04754   19.17147    2.75358
       O    13.86461   19.14829    2.29801
      H1    14.35892   19.88869    2.65693
       H    11.03868   17.82310   -2.13093
       O    11.10702   18.48340   -2.87158
      H1    11.96082   18.87417   -2.71865
       H     8.09734   15.57341    0.25208
       O     7.77595   15.26931   -0.63252
      H1     7.66094   14.33038   -0.55391
       H    12.46622   15.74976    1.50749
       O    11.84825   15.50579    0.82134
      H1    11.55646   16.31670    0.36403
       H    10.57578   13.46869    4.98129
       O    10.65066   12.56331    4.59470
      H1    11.37641   12.58389    3.97450
       H    12.55482   14.44359   -0.31094
       O    12.96240   13.72601   -0.87663
      H1    12.25254   13.73439   -1.62337
       H    10.05078   16.20735   -0.99715
       O    10.21752   17.05961   -0.63953
      H1     9.42704   17.63850   -0.51462
       H    10.79930   15.01951   -3.69950
       O    10.48647   14.60243   -2.83532
      H1     9.48319   14.64037   -2.93247
       H    12.25492   18.89007   -0.07045
       O    13.06371   18.32227   -0.09980
      H1    13.46856   18.72196    0.76450
       H    11.10444   17.86778    4.71358
       O    11.12036   18.56321    4.00955
      H1    10.39530   18.18915    3.49110
       H    12.04104   12.45102    1.65787
       O    11.68525   12.20950    0.75945
      H1    12.08220   12.89129    0.16439
       H    14.64158   13.13685   -0.45019
       O    15.54504   12.73033   -0.55335
      H1    15.47361   11.82285   -0.84469
       H    10.02128   15.49024    1.35797
       O     9.10912   15.33360    1.69896
      H1     9.06275   14.36432    1.91375
       H    13.47407   13.89182    3.45263
       O    13.03825   13.06074    3.14901
      H1    13.63075   12.28576    3.17119
       H     9.79914   12.70498    2.91790
       O     9.23347   12.53428    2.10422
      H1     9.75489   12.58400    1.24312

