51
frame 6 | Written by MDAnalysis XYZWriter (release 2.4.3)
       H   -10.86474    6.02511   13.26361
       O   -11.25745    6.13936   14.09141
      H1   -11.56410    7.05877   14.09528
       H   -12.93712    2.92624   13.50413
       O   -12.45003    2.14026   13.17837
      H1   -12.14311    1.70028   13.97730
       H   -12.42369    1.41045   18.42218
       O   -11.54630    1.58352   18.07498
      H1   -10.86301    1.20258   18.58379
       H   -13.83418   -2.20495   14.79690
       O   -13.17252   -1.52800   14.44634
      H1   -12.43012   -2.01330   14.08748
       H   -13.97148    3.09559   10.30434
       O   -13.59045    3.33006    9.41115
      H1   -13.11061    2.56824    9.09444
       H   -13.66434    4.03738   15.32323
       O   -13.43492    4.36248   14.41766
      H1   -12.65532    4.96767   14.46411
       H   -14.90948    2.37006   12.27171
       O   -15.36019    2.78536   11.57791
      H1   -15.54389    1.90242   11.04382
       H    -7.66676    2.83436   10.34715
       O    -8.21158    2.26584   10.87322
      H1    -9.07493    2.74796   10.83079
       H    -8.93024    5.00296   12.77119
       O    -9.55615    5.40253   12.16525
      H1    -9.87111    4.69213   11.54857
       H   -12.77792    0.87265   11.60817
       O   -12.61554    0.37096   10.74871
      H1   -13.17354   -0.37785   10.83660
       H   -15.29337   -0.34316   12.55921
       O   -14.66749    0.23350   12.94815
      H1   -14.12089   -0.35236   13.51614
       H   -11.39864    3.79453    9.96633
       O   -10.84599    3.40881   10.63508
      H1   -11.38251    2.95346   11.25928
       H    -9.20891    0.26960   13.36388
       O    -8.81017    0.53941   14.24222
      H1    -9.54275    0.19676   14.82764
       H   -10.82233    0.21367   10.22733
       O    -9.91444    0.30783   10.01959
      H1    -9.60714    1.01873   10.57869
       H   -11.38964    3.40628   17.68752
       O   -11.71489    4.35057   17.63119
      H1   -11.48330    4.67597   18.56201
       H   -16.63935    0.89514   15.60712
       O   -16.62058    0.85251   14.65736
      H1   -15.74833    0.69606   14.24511
       H   -11.67764    1.17046   16.15572
       O   -11.60372    0.65859   15.36157
      H1   -12.22095   -0.09120   15.49505

