51
frame 7 | Written by MDAnalysis XYZWriter (release 2.4.3)
       H    -6.56208   10.19022  -18.22778
       O    -7.17024   10.84512  -18.69507
      H1    -7.26876   11.50930  -18.03592
       H    -6.05513    5.62417  -18.06354
       O    -6.23218    6.19025  -17.28781
      H1    -5.35726    6.23634  -16.82313
       H   -10.49784    9.25895  -12.02893
       O   -10.10930    8.83162  -12.76499
      H1   -10.19301    7.87245  -12.57757
       H    -7.62536   11.65614  -12.71358
       O    -7.71728   12.60386  -12.79470
      H1    -7.99632   12.98220  -11.90344
       H    -9.44819    8.92807  -16.80850
       O    -8.91242    9.70000  -16.68504
      H1    -8.50200   10.01433  -17.53544
       H    -6.53114   12.16900  -15.99145
       O    -5.86067   11.50309  -15.71313
      H1    -6.22357   10.59662  -15.59959
       H    -5.91107    8.04211  -17.75808
       O    -5.55651    8.94785  -17.98507
      H1    -5.37793    9.39169  -17.14642
       H    -6.17970    7.27910  -14.27699
       O    -5.86459    6.74166  -13.55258
      H1    -5.08144    6.32296  -14.00204
       H    -2.71387    7.69344  -17.77005
       O    -2.60968    8.04583  -16.89830
      H1    -2.93203    9.00928  -16.99867
       H    -7.37850    9.88014  -11.76437
       O    -7.60455    9.77949  -12.68905
      H1    -8.53506    9.41268  -12.76291
       H    -3.68293   11.02608  -13.82022
       O    -3.47993   11.97008  -13.70148
      H1    -4.33340   12.42040  -13.85574
       H   -10.98259    9.87674  -14.26854
       O   -11.33533   10.29599  -15.10113
      H1   -10.60609   10.16569  -15.71772
       H    -3.50936    6.80943  -15.56265
       O    -3.81037    6.04823  -15.03437
      H1    -2.99805    5.77220  -14.51786
       H    -6.73669    9.22818  -14.29301
       O    -6.64455    9.00786  -15.23365
      H1    -7.58182    9.03812  -15.58350
       H    -3.14715    8.79202  -13.56981
       O    -3.92069    9.13440  -14.01627
      H1    -4.38088    8.33597  -14.31814
       H    -7.71861    4.87957  -14.62546
       O    -7.94677    5.07135  -13.71368
      H1    -7.20448    5.69239  -13.41495
       H    -3.20564   10.81700  -17.78917
       O    -3.17401   10.71161  -16.83055
      H1    -3.97902   11.09720  -16.45759

