51
frame 8 | Written by MDAnalysis XYZWriter (release 2.4.3)
       H   -10.71088  -19.07834    5.53590
       O    -9.77086  -18.97700    5.76145
      H1    -9.60266  -19.90974    5.92354
       H   -10.58177  -13.93570    4.41694
       O   -10.61197  -13.16506    3.80953
      H1    -9.86137  -13.38473    3.23808
       H   -10.64421  -14.15234    7.44032
       O   -10.40540  -14.66050    8.20686
      H1   -11.24427  -14.87953    8.64311
       H   -16.11127  -17.88651    4.07314
       O   -15.48850  -18.24643    3.38947
      H1   -15.22669  -19.13351    3.66900
       H   -12.64387  -19.77969    6.63024
       O   -12.66931  -19.10966    5.88814
      H1   -13.10573  -19.62888    5.15456
       H   -12.30403  -10.92640    3.54963
       O   -11.96996  -11.11665    2.67674
      H1   -11.37425  -11.89550    2.85565
       H   -14.13436  -15.66640    2.16476
       O   -14.85512  -15.48420    1.51211
      H1   -15.68876  -15.77188    1.84158
       H   -11.17884  -16.58772    2.97237
       O   -10.24298  -16.85047    2.82377
      H1   -10.06324  -16.43091    1.99547
       H   -10.46126  -16.02773    4.81493
       O   -10.45320  -15.23928    5.39771
      H1   -10.34538  -15.61359    6.28196
       H   -13.45347  -17.57739    6.88178
       O   -13.87784  -16.86390    7.47107
      H1   -14.30725  -17.41485    8.18897
       H   -15.30649  -12.00687    2.79869
       O   -15.54622  -12.72571    3.41247
      H1   -16.00913  -12.20302    4.11073
       H   -15.05604  -15.93248    6.65280
       O   -15.62227  -15.26295    6.14331
      H1   -15.97346  -14.81335    6.87327
       H   -17.96111  -17.56004    5.08931
       O   -17.47072  -16.86745    4.62896
      H1   -16.98489  -16.29206    5.25319
       H   -12.22852  -12.64380    7.22024
       O   -11.68158  -12.60908    6.42971
      H1   -12.05439  -13.18598    5.79101
       H   -14.00958  -13.47386    4.15738
       O   -13.46392  -14.01252    4.74760
      H1   -14.13504  -14.50623    5.22099
       H   -13.80249  -16.96274    3.54541
       O   -13.02297  -16.40704    3.46509
      H1   -12.98173  -15.76648    4.15571
       H   -12.41167  -17.28321    1.57823
       O   -12.42639  -17.36029    0.59233
      H1   -13.32385  -17.41766    0.44476

