51
frame 8 | Written by MDAnalysis XYZWriter (release 2.4.3)
       H   -17.94932   11.77119   -8.41119
       O   -18.14007   10.78555   -8.44867
      H1   -19.08825   10.81643   -8.56525
       H   -15.52327   15.47608  -11.88832
       O   -16.33253   15.86439  -12.25266
      H1   -16.46216   16.75187  -11.93051
       H   -19.64316   15.45095  -17.48815
       O   -19.26998   14.70212  -18.03480
      H1   -19.25041   13.85811  -17.51666
       H   -16.79621   15.15004  -13.84631
       O   -17.40211   14.89214  -14.55506
      H1   -17.81459   15.73959  -14.71640
       H   -18.62116    9.09588  -13.31842
       O   -18.46337    9.90524  -12.85458
      H1   -19.28097   10.31178  -12.57148
       H   -13.36282   14.17176  -13.64447
       O   -14.25071   13.95899  -13.32469
      H1   -14.60871   13.47873  -14.07568
       H   -17.68310   14.32058   -9.41985
       O   -17.25719   13.79160   -8.76377
      H1   -17.44561   14.12626   -7.80003
       H   -16.00655   19.01315  -11.67830
       O   -16.83613   18.52139  -11.52182
      H1   -17.62648   18.97401  -11.81406
       H   -18.80807   12.70983  -15.40861
       O   -18.25583   12.68953  -16.22737
      H1   -18.48739   11.96176  -16.84249
       H   -16.58628   18.24104   -9.78785
       O   -16.60447   18.65289   -8.92546
      H1   -16.59439   19.64403   -9.13190
       H   -18.44681   17.67506  -16.28800
       O   -17.97288   17.61657  -15.47424
      H1   -17.25792   18.26848  -15.49288
       H   -18.33098   17.99551   -8.72774
       O   -19.26461   17.72005   -8.52880
      H1   -19.21221   17.42211   -7.58195
       H   -18.62031   15.10715  -12.70618
       O   -19.45191   15.26310  -12.27119
      H1   -20.13191   15.11858  -12.99473
       H   -14.91666   12.75568  -16.25262
       O   -15.45356   12.60767  -15.43080
      H1   -16.40751   12.74541  -15.71315
       H   -19.07671   18.93272  -14.81489
       O   -19.78933   19.64490  -14.78625
      H1   -19.74953   20.17960  -14.00668
       H   -15.07232   17.03404  -15.45005
       O   -14.42357   17.40447  -14.81708
      H1   -14.64638   17.04290  -13.93930
       H   -14.86168   15.25915  -16.99252
       O   -15.55563   15.79935  -16.71809
      H1   -16.24298   15.16335  -16.47429

