51
frame 0 | Written by MDAnalysis XYZWriter (release 2.4.3)
       H   -10.43805   10.94596    1.83033
       O   -11.09235   10.81828    2.55329
      H1   -11.86747   11.20695    2.14410
       H   -10.85830   17.52111   -1.65519
       O   -11.51274   17.51379   -0.91983
      H1   -11.15471   16.79059   -0.41482
       H   -10.99498    9.60724   -2.69510
       O   -10.20762    9.23983   -2.18714
      H1   -10.60561    8.46917   -1.69553
       H   -12.96676    9.93261   -2.16467
       O   -12.60648    9.85972   -2.99876
      H1   -12.75859   10.73384   -3.43173
       H   -13.36029   16.83705   -0.61754
       O   -14.14469   16.29087   -0.42491
      H1   -14.92518   16.85215   -0.37696
       H    -9.08001   10.89252   -0.19276
       O   -10.06797   10.85452   -0.07805
      H1   -10.37624   10.13605   -0.66552
       H    -7.62412   13.53888    1.93407
       O    -6.87193   13.22178    1.37951
      H1    -7.27563   12.44149    0.90942
       H   -13.51557   12.44088    0.83240
       O   -13.38910   11.74709    1.47388
      H1   -13.69306   11.00792    1.01546
       H   -15.79206   13.76457   -2.81437
       O   -14.97472   14.11248   -3.22854
      H1   -14.29554   13.78989   -2.58413
       H    -7.99724   15.17298   -1.82885
       O    -7.73951   15.68339   -1.06318
      H1    -7.42774   14.97689   -0.52342
       H   -10.91693   12.39241   -0.21075
       O   -11.00853   13.31531   -0.44872
      H1   -10.60534   13.33225   -1.33824
       H   -12.31017   14.73503   -4.83664
       O   -12.47231   15.24377   -3.99392
      H1   -13.23782   14.84246   -3.53111
       H    -6.78263   11.46203   -0.80858
       O    -7.40100   10.92358   -0.25147
      H1    -6.84379   10.15411    0.06983
       H    -9.60316   13.44472    3.54678
       O    -9.08731   13.90845    2.86862
      H1    -9.90705   14.11129    2.41667
       H   -12.57467   13.60541   -0.66653
       O   -13.53514   13.65763   -0.81081
      H1   -13.80921   14.58655   -0.71370
       H   -10.44699   14.50706   -3.48702
       O    -9.75046   13.90740   -3.08916
      H1    -9.26906   13.59936   -3.86658
       H   -10.71163   14.85067    0.47453
       O   -10.60452   15.67297    0.99609
      H1    -9.72324   16.06357    0.92881

