51
frame 8 | Written by MDAnalysis XYZWriter (release 2.4.3)
       H     8.00265    8.74767  -13.31503
       O     9.00430    8.72456  -13.19811
      H1     9.11218    8.31660  -12.29232
       H    12.88735    9.88878  -13.75606
       O    13.32887   10.29037  -14.51508
      H1    13.87551   10.95258  -14.11358
       H    13.68763    8.02463   -8.02114
       O    13.87520    8.34334   -8.91674
      H1    13.25318    9.00855   -9.19429
       H    12.53174    3.31514  -13.54927
       O    12.94801    2.89944  -12.80565
      H1    13.88789    2.93281  -13.00430
       H    11.64734   10.25374  -10.05306
       O    12.60788   10.40231  -10.22381
      H1    12.90899   10.77623   -9.41393
       H    11.95978    6.31703  -15.62249
       O    12.20527    6.13007  -16.51038
      H1    12.16883    5.14097  -16.39260
       H    13.59777    7.47064  -13.29068
       O    12.80220    7.87686  -13.05867
      H1    12.16692    7.20059  -12.81925
       H    15.24882    8.67461  -16.33994
       O    15.40618    9.30285  -15.60298
      H1    14.52405    9.53366  -15.21909
       H    10.39033    8.27164   -9.69516
       O    10.42163    8.36510  -10.63475
      H1    11.03792    7.67544  -10.89353
       H    15.79815    8.24319  -12.55768
       O    15.50464    7.67261  -13.30770
      H1    15.48540    8.29567  -14.08598
       H    10.82133   11.02622  -14.58966
       O    10.26494   11.08177  -13.73380
      H1     9.93052   10.21174  -13.43901
       H    10.05426    6.29360  -11.89029
       O    10.95692    5.97328  -12.00837
      H1    11.13352    5.54333  -11.19873
       H     9.40886    7.89389  -16.04639
       O     9.61110    7.12662  -15.47173
      H1     9.47435    7.52232  -14.62133
       H    15.30014    9.09065  -10.61806
       O    16.12821    9.43989  -10.92962
      H1    16.04918   10.17956  -11.58072
       H    13.12330    3.40463  -10.79668
       O    13.02398    3.31811   -9.83364
      H1    12.67696    2.47464   -9.59913
       H    12.64676    6.63253   -9.16307
       O    12.00159    5.89847   -9.26345
      H1    12.53944    5.23192   -9.64748
       H    15.34854    6.01577  -12.38988
       O    15.36063    5.16112  -11.94431
      H1    15.85239    4.64429  -12.65165

