51
frame 7 | Written by MDAnalysis XYZWriter (release 2.4.3)
       H    18.09961  -10.77395   13.01132
       O    18.70991  -11.53352   12.71769
      H1    18.46502  -12.23724   13.29999
       H    18.11747   -3.94897   10.73635
       O    18.38161   -3.07872   10.32335
      H1    19.16754   -2.89176   10.83295
       H    14.28055   -5.88472   10.39737
       O    13.79289   -6.01844    9.56981
      H1    13.84178   -5.19669    9.02047
       H    18.17183  -11.51423    8.10311
       O    17.70060  -12.18015    8.65686
      H1    18.39213  -12.69932    9.07409
       H    17.58322  -11.69166   11.47036
       O    16.80406  -11.51293   10.95397
      H1    17.10126  -11.56449   10.05866
       H    14.43311   -7.68525    9.00817
       O    14.49859   -8.56057    8.53284
      H1    14.02941   -9.10190    9.16149
       H    15.78570   -4.00995    8.35275
       O    16.60264   -4.46754    8.57625
      H1    17.09259   -3.87811    9.16645
       H    19.83675  -10.26893    7.11104
       O    18.85669  -10.36287    6.98060
      H1    18.83004  -10.89063    6.21929
       H    14.50272   -6.92745   12.67436
       O    14.93916   -6.11445   12.40278
      H1    14.70236   -5.46001   13.07282
       H    13.86382   -8.93355   13.15305
       O    14.11632   -9.47947   12.41352
      H1    15.01263   -9.20136   12.15673
       H    18.66286   -8.56600    6.96823
       O    18.54371   -7.62652    7.06550
      H1    19.38848   -7.21596    6.75919
       H    17.95497   -8.61379   13.89932
       O    17.45602   -9.28450   13.34022
      H1    17.34356   -8.84065   12.48599
       H    17.57923   -6.38487   10.83463
       O    17.64701   -5.68215   11.48239
      H1    16.76311   -5.77961   11.92149
       H    15.49776   -8.01223    7.20872
       O    15.95891   -7.64932    6.38845
      H1    16.88975   -7.46555    6.53795
       H    18.41239   -6.49318   14.29720
       O    18.92508   -7.32022   14.33013
      H1    19.83759   -7.07205   14.24233
       H    16.65562   -9.87040   10.80781
       O    16.52621   -8.84867   10.76622
      H1    15.79352   -8.68822   10.09295
       H    18.85757   -8.06031    8.92459
       O    18.98701   -8.03132    9.89407
      H1    18.25244   -8.55240   10.24810

