51
frame 8 | Written by MDAnalysis XYZWriter (release 2.4.3)
       H    -6.31631   15.95925   12.62498
       O    -6.37579   16.09645   13.59074
      H1    -6.86302   15.27619   13.94794
       H    -7.13703   13.27912    7.44397
       O    -6.85441   14.14094    7.80548
      H1    -7.59710   14.49536    8.35406
       H    -4.13359   15.94573    8.06503
       O    -3.60167   15.90203    8.86227
      H1    -3.01965   15.09968    8.62481
       H    -0.63671   10.76504    9.13405
       O    -0.45627   11.74079    9.17133
      H1    -0.97087   12.10503    8.46353
       H    -5.55065   19.51215    6.70674
       O    -6.41865   19.23029    7.10694
      H1    -6.94227   20.01525    7.20221
       H    -2.00130   16.44245   11.85022
       O    -1.73921   15.84725   11.15017
      H1    -2.50453   15.98106   10.54312
       H    -1.88168   14.31518    6.98018
       O    -1.56603   14.28878    7.88278
      H1    -0.65439   14.59638    7.93673
       H     0.05364   15.42133   11.07272
       O     0.86589   15.03720   11.51046
      H1     0.67045   14.07380   11.68131
       H    -3.87985   17.42103   12.09757
       O    -3.07961   17.51589   12.67028
      H1    -2.97280   18.46392   12.77504
       H    -5.22193   15.82747   10.24828
       O    -5.57565   16.31448   10.96078
      H1    -5.71514   17.18875   10.61886
       H    -0.89864   17.46771    6.59937
       O    -1.49475   17.72916    7.37333
      H1    -2.02288   16.93519    7.59173
       H    -6.37781   13.40171    9.66143
       O    -6.31494   12.62434   10.29569
      H1    -6.56698   11.88403    9.67888
       H    -5.52665   19.58392   10.07535
       O    -6.20188   18.90401   10.01689
      H1    -6.30665   18.81125    9.05314
       H    -7.36675   16.05259   10.36938
       O    -8.23347   15.77358   10.04271
      H1    -8.77096   15.80039   10.82641
       H    -5.59449   16.43386    5.99258
       O    -5.17087   15.83702    6.65978
      H1    -5.87542   15.16470    6.91654
       H    -3.85103   14.95615    5.58283
       O    -2.98580   14.56568    5.61194
      H1    -2.69637   14.45900    4.74235
       H    -4.00316   12.50456    5.76066
       O    -4.58102   11.84755    5.36428
      H1    -5.13279   11.51781    6.08691

