51
frame 8 | Written by MDAnalysis XYZWriter (release 2.4.3)
       H     7.94239    4.48772  -13.83404
       O     7.74108    4.29927  -12.86280
      H1     8.02397    5.16604  -12.45380
       H     8.00265    8.74767  -13.31503
       O     9.00430    8.72456  -13.19811
      H1     9.11218    8.31660  -12.29232
       H    12.53174    3.31514  -13.54927
       O    12.94801    2.89944  -12.80565
      H1    13.88789    2.93281  -13.00430
       H    11.95978    6.31703  -15.62249
       O    12.20527    6.13007  -16.51038
      H1    12.16883    5.14097  -16.39260
       H    13.59777    7.47064  -13.29068
       O    12.80220    7.87686  -13.05867
      H1    12.16692    7.20059  -12.81925
       H     7.60627    4.77449  -16.63668
       O     7.45749    5.21964  -15.76130
      H1     8.27486    5.79379  -15.74823
       H     7.63074    7.07119  -10.22346
       O     7.56145    6.75465  -11.13844
      H1     6.65439    6.55419  -11.38329
       H    10.39033    8.27164   -9.69516
       O    10.42163    8.36510  -10.63475
      H1    11.03792    7.67544  -10.89353
       H     8.46790    2.43591  -10.66568
       O     9.03426    2.39911  -11.44797
      H1     8.56537    3.04896  -12.09450
       H    10.25261    8.91293   -6.95913
       O    10.02404    9.05367   -7.88760
      H1     9.18471    8.59023   -8.10496
       H    10.82133   11.02622  -14.58966
       O    10.26494   11.08177  -13.73380
      H1     9.93052   10.21174  -13.43901
       H     7.81141    7.17689   -7.96416
       O     7.70306    7.85688   -8.67259
      H1     6.77922    8.14107   -8.46299
       H    10.05426    6.29360  -11.89029
       O    10.95692    5.97328  -12.00837
      H1    11.13352    5.54333  -11.19873
       H     9.40886    7.89389  -16.04639
       O     9.61110    7.12662  -15.47173
      H1     9.47435    7.52232  -14.62133
       H     6.17310    7.65783  -13.95768
       O     6.24933    8.57180  -13.61498
      H1     5.92263    8.54219  -12.70216
       H    13.12330    3.40463  -10.79668
       O    13.02398    3.31811   -9.83364
      H1    12.67696    2.47464   -9.59913
       H    12.64676    6.63253   -9.16307
       O    12.00159    5.89847   -9.26345
      H1    12.53944    5.23192   -9.64748

