51
frame 8 | Written by MDAnalysis XYZWriter (release 2.4.3)
       H     2.98151  -19.22635   12.83792
       O     2.48868  -18.59698   13.38818
      H1     3.06354  -18.44646   14.17255
       H     4.58463  -18.07396    3.27222
       O     5.13361  -18.24514    2.45320
      H1     4.67284  -17.69451    1.80997
       H     9.03821  -19.18316   10.80948
       O     8.21473  -19.38990   11.24339
      H1     8.44114  -19.95867   11.97057
       H     5.62620  -12.24991    9.57722
       O     4.98098  -12.95973    9.41910
      H1     5.52648  -13.71985    9.14135
       H     7.11660  -16.03645   11.27130
       O     7.63252  -15.22839   11.20805
      H1     8.03629  -15.12246   12.07247
       H     4.27914  -18.02854    7.03746
       O     4.35943  -17.72161    7.93720
      H1     4.53995  -18.52794    8.45885
       H     4.07029  -17.23509    4.92259
       O     3.86803  -18.20565    4.98440
      H1     2.90770  -18.19131    4.84139
       H     3.19050  -17.31731   12.41035
       O     3.77971  -16.65595   11.93305
      H1     3.18298  -16.17764   11.33820
       H    -0.30818  -15.54557    6.89422
       O     0.62394  -15.44669    6.69187
      H1     0.59602  -14.89640    5.93457
       H     0.44267  -18.70514    8.11856
       O    -0.10257  -19.13943    8.73472
      H1    -0.29944  -19.97714    8.29363
       H     4.58467  -15.01853    5.44432
       O     4.07788  -15.37090    4.68507
      H1     4.66379  -15.05581    3.95946
       H     3.55951  -16.29646    8.71993
       O     3.21407  -15.70206    9.39005
      H1     2.44900  -15.28024    9.00759
       H     1.04904  -17.13484    5.69093
       O     1.05166  -17.94044    5.15300
      H1     0.90366  -17.64886    4.26357
       H     7.19599  -15.09359    8.30300
       O     7.28284  -14.18515    8.57308
      H1     7.23610  -14.17975    9.49124
       H     6.81779  -17.99318   11.29253
       O     6.15422  -17.45776   10.80758
      H1     5.41151  -17.17957   11.32703
       H     8.62818  -16.70756    7.43443
       O     9.53547  -16.76127    7.23862
      H1     9.76041  -15.83009    6.99064
       H     6.63933  -16.63602    6.56917
       O     6.91208  -16.73806    7.48582
      H1     6.12153  -17.18700    7.82956

