51
frame 8 | Written by MDAnalysis XYZWriter (release 2.4.3)
       H   -17.94523   -0.16012  -14.42271
       O   -17.96091    0.15379  -13.48009
      H1   -17.07743   -0.04068  -13.11840
       H   -13.84291   -1.65753  -16.49834
       O   -14.27579   -0.83576  -16.68734
      H1   -14.56162   -0.38693  -15.86979
       H   -16.82027    5.73100  -17.03382
       O   -16.74364    5.22286  -16.24127
      H1   -16.02834    5.66722  -15.78642
       H   -17.72367   -0.13296  -16.39309
       O   -17.91855   -0.95930  -15.93094
      H1   -17.11229   -1.50651  -16.16059
       H   -17.67556    2.23361  -16.51594
       O   -18.04245    1.57941  -17.18710
      H1   -17.45638    1.27169  -17.89249
       H   -16.40119    6.18055  -13.43556
       O   -15.59083    5.73435  -13.17173
      H1   -14.89022    6.37508  -13.24254
       H   -15.94426   -0.86582  -19.15866
       O   -15.22616   -1.49245  -19.31826
      H1   -14.76399   -1.43566  -18.42491
       H   -14.88399   -3.61488  -17.49034
       O   -14.26562   -4.21509  -17.98094
      H1   -14.27970   -3.94604  -18.90258
       H   -17.95470    3.17839  -12.14810
       O   -18.25869    2.89323  -13.05183
      H1   -18.27874    1.88530  -12.92697
       H   -14.25213    4.24983  -13.14741
       O   -13.60502    3.55345  -13.25841
      H1   -13.96788    2.78499  -12.74483
       H   -17.52545    7.63267  -17.82740
       O   -17.23982    7.01495  -18.47533
      H1   -16.25819    7.27678  -18.63877
       H   -16.72926   -3.36671  -16.83832
       O   -16.06157   -2.97888  -16.24858
      H1   -16.09402   -3.53055  -15.49221
       H   -18.79927   -3.90594  -17.61370
       O   -18.18371   -4.58936  -18.04130
      H1   -18.23548   -5.43862  -17.47692
       H   -13.65153    4.68193  -17.64059
       O   -13.85185    5.36306  -17.02000
      H1   -13.05960    5.50142  -16.49719
       H   -17.02478    2.34390  -14.29570
       O   -16.59399    2.54158  -15.16830
      H1   -16.64186    3.49746  -15.21096
       H   -12.80965    2.57387  -16.22759
       O   -12.06825    2.15075  -16.71241
      H1   -11.93532    1.24119  -16.34612
       H   -15.16611    1.50963  -14.64502
       O   -14.65159    0.72696  -14.30346
      H1   -13.73357    1.03172  -14.09158

