51
frame 8 | Written by MDAnalysis XYZWriter (release 2.4.3)
       H   -17.94932   11.77119   -8.41119
       O   -18.14007   10.78555   -8.44867
      H1   -19.08825   10.81643   -8.56525
       H   -14.67282   12.75938   -9.87211
       O   -14.49421   13.15084   -8.94431
      H1   -15.38799   13.49699   -8.72127
       H   -14.44859   12.55493  -12.18027
       O   -14.42258   11.98576  -11.35987
      H1   -15.26061   11.58385  -11.33013
       H   -15.52327   15.47608  -11.88832
       O   -16.33253   15.86439  -12.25266
      H1   -16.46216   16.75187  -11.93051
       H   -14.39064    8.93689  -10.66260
       O   -13.57500    9.09759  -11.15299
      H1   -13.58768   10.03973  -11.36697
       H   -11.95331   10.85838   -6.30240
       O   -11.61672   10.45189   -7.12493
      H1   -12.34200   10.48105   -7.70103
       H   -10.58485    9.42569   -9.66805
       O   -11.08460    8.59579   -9.81110
      H1   -11.94511    8.86456  -10.20688
       H   -13.36282   14.17176  -13.64447
       O   -14.25071   13.95899  -13.32469
      H1   -14.60871   13.47873  -14.07568
       H   -11.03790   10.57422  -14.10304
       O   -10.93579   10.15519  -14.92119
      H1   -10.47551    9.37480  -14.63326
       H   -17.68310   14.32058   -9.41985
       O   -17.25719   13.79160   -8.76377
      H1   -17.44561   14.12626   -7.80003
       H   -15.77227   10.89485  -14.50524
       O   -16.02420   10.01952  -14.41224
      H1   -16.87344   10.05749  -13.99156
       H   -12.75244   13.71252   -8.25250
       O   -12.24093   14.04458   -7.48360
      H1   -11.90021   14.91561   -7.71313
       H   -14.91666   12.75568  -16.25262
       O   -15.45356   12.60767  -15.43080
      H1   -16.40751   12.74541  -15.71315
       H   -17.40914   10.31527   -9.97090
       O   -16.81848   10.52406  -10.74738
      H1   -17.43549   10.15664  -11.45341
       H   -11.72596   14.86524  -11.80694
       O   -11.73460   15.33423  -10.96127
      H1   -11.18513   16.08505  -11.16524
       H   -13.77618    8.03603  -12.75318
       O   -13.79855    7.67591  -13.65748
      H1   -14.46136    8.29757  -13.99817
       H   -14.95352   10.09034   -8.24814
       O   -14.38929   10.73019   -7.81796
      H1   -14.43045   11.58832   -8.26019

