51
frame 8 | Written by MDAnalysis XYZWriter (release 2.4.3)
       H    -4.26046  -19.76915  -13.87543
       O    -4.89720  -19.10377  -14.08974
      H1    -5.62799  -19.25696  -13.46298
       H    -5.45609  -18.96928  -16.02389
       O    -5.21140  -18.84093  -16.97470
      H1    -5.99423  -19.05116  -17.48586
       H    -7.39128  -16.52266  -15.25055
       O    -7.87943  -16.56458  -14.37927
      H1    -7.48338  -17.36434  -13.90617
       H    -4.05916  -17.51191  -14.09750
       O    -3.72891  -16.59138  -14.01714
      H1    -4.30079  -16.22742  -13.36356
       H    -5.31529  -16.94871  -16.40129
       O    -6.07032  -16.29902  -16.55040
      H1    -5.62708  -15.49835  -16.80384
       H    -7.54648  -20.03640  -18.83767
       O    -7.63945  -19.30182  -18.20971
      H1    -7.59795  -18.51320  -18.76410
       H    -6.17088  -18.86647  -11.43656
       O    -6.96332  -19.00604  -12.05691
      H1    -7.31208  -19.94799  -12.10432
       H    -3.54557  -18.41072  -18.26949
       O    -2.88416  -18.80552  -18.84776
      H1    -2.61229  -18.11124  -19.49075
       H    -2.68895  -13.31157  -16.91606
       O    -3.42194  -13.93313  -16.85058
      H1    -3.04793  -14.78333  -16.63302
       H    -2.16542  -17.24329  -16.95457
       O    -2.86869  -16.62758  -16.68733
      H1    -2.74550  -16.58356  -15.67264
       H    -2.81273  -20.26089  -12.32108
       O    -2.06436  -19.68074  -12.09524
      H1    -2.39230  -18.77866  -11.84469
       H   -10.36601  -17.80982  -18.01995
       O   -10.48769  -16.87123  -18.05206
      H1    -9.59550  -16.49946  -18.30799
       H    -7.58878  -15.67120  -19.30334
       O    -7.94500  -15.84321  -18.42441
      H1    -7.09881  -15.88273  -17.85063
       H    -5.83390  -14.00582  -18.92566
       O    -5.65592  -13.28932  -18.31056
      H1    -4.78955  -13.50323  -17.98102
       H    -1.15621  -19.00189  -16.18459
       O    -0.73000  -18.40409  -16.86768
      H1    -1.07083  -18.79865  -17.67511
       H   -11.01367  -16.71066  -14.11586
       O   -10.38623  -17.22237  -13.57037
      H1    -9.51919  -16.92895  -13.89176
       H   -10.32654  -19.49879  -16.54533
       O   -10.34979  -19.43331  -17.52192
      H1    -9.49058  -19.76203  -17.77464

