51
frame 9 | Written by MDAnalysis XYZWriter (release 2.4.3)
       H   -15.84466   -5.52247   13.62515
       O   -15.25713   -4.76946   13.60827
      H1   -15.07679   -4.35157   14.47546
       H   -13.19699   -2.09768   15.13731
       O   -12.25726   -1.79489   15.13784
      H1   -11.78499   -2.53110   14.65423
       H   -15.74369   -3.42815   12.55650
       O   -15.75577   -2.75637   11.86939
      H1   -16.59725   -2.32981   12.04380
       H   -16.93154   -7.44733   13.96578
       O   -17.24721   -6.72269   13.37349
      H1   -17.14939   -7.14125   12.49757
       H   -18.17819   -4.01140   15.80973
       O   -18.79499   -4.75864   15.92525
      H1   -19.10131   -4.63187   16.82576
       H   -15.24959   -0.91887   12.21113
       O   -15.03628   -0.13337   12.68846
      H1   -14.03540    0.00306   12.80271
       H   -19.28724   -2.45008   18.36265
       O   -18.74389   -1.61931   18.36456
      H1   -19.28870   -0.88622   18.75198
       H   -16.47296    0.53861   18.42980
       O   -16.57332    0.01209   19.19517
      H1   -16.95022   -0.78957   18.82001
       H   -18.85980   -8.64492   18.44100
       O   -18.95671   -8.37740   17.52299
      H1   -18.93079   -9.22045   17.03122
       H   -14.07064   -7.33048   16.70379
       O   -14.26658   -7.22872   15.73012
      H1   -15.22832   -7.07483   15.65866
       H   -17.58824   -7.18019   17.18017
       O   -16.99035   -6.70339   16.59601
      H1   -17.55692   -6.07729   16.14264
       H   -14.56915   -3.20729   16.57622
       O   -14.86670   -3.09056   15.64720
      H1   -15.43696   -2.33162   15.62461
       H   -17.99285   -0.42389   12.70580
       O   -17.89902   -1.35034   12.92427
      H1   -18.24581   -1.40723   13.83556
       H   -17.48990   -1.29311   15.65015
       O   -18.30234   -1.83923   15.57095
      H1   -18.67839   -1.80775   16.47350
       H   -15.53940    0.37926   15.85485
       O   -15.85225   -0.38066   15.32146
      H1   -15.58461   -0.17784   14.39305
       H   -13.45193   -3.99562   18.40923
       O   -14.00557   -3.17377   18.19366
      H1   -13.37299   -2.45140   18.12086
       H   -13.20427   -6.44403   14.62111
       O   -12.79388   -6.03055   13.83697
      H1   -13.71010   -5.76469   13.48661

