51
frame 9 | Written by MDAnalysis XYZWriter (release 2.4.3)
       H   -13.19902   18.80906  -18.31744
       O   -12.49485   18.22393  -18.63435
      H1   -11.67117   18.65394  -18.42271
       H   -15.86720   15.84639  -12.35341
       O   -16.34735   16.70310  -12.28014
      H1   -16.16406   17.07814  -11.44757
       H   -19.07081   16.79008  -10.94329
       O   -19.52526   17.56815  -10.61520
      H1   -19.06559   17.76538   -9.74361
       H   -19.91032   15.83353  -17.53011
       O   -19.61524   14.94709  -17.93003
      H1   -19.20140   14.48819  -17.19674
       H   -17.24486   16.71705  -14.07713
       O   -17.53437   16.44569  -14.97548
      H1   -18.11472   17.07122  -15.45187
       H   -16.82943   18.40874  -17.36317
       O   -15.92464   18.13741  -17.52959
      H1   -15.70749   17.36911  -16.93107
       H   -15.25923   19.89475  -16.10580
       O   -15.01803   20.06744  -15.21107
      H1   -14.38556   19.37334  -14.89784
       H   -14.33596   14.52489  -13.35635
       O   -15.30839   14.49838  -13.24462
      H1   -15.73456   14.29491  -14.10954
       H   -15.63231   16.58055  -20.33519
       O   -15.16686   16.49731  -19.49893
      H1   -15.67393   17.19281  -18.94426
       H   -12.89412   13.37926  -17.36832
       O   -13.38797   14.22062  -17.25320
      H1   -13.53404   14.51699  -18.23302
       H   -18.94906   13.49162  -15.55159
       O   -18.22363   13.30432  -16.17299
      H1   -18.34921   12.36763  -16.49360
       H   -19.24688   19.09514  -16.75739
       O   -18.30999   19.20418  -16.51358
      H1   -18.05490   19.99649  -17.01363
       H   -17.84998   15.55573  -11.82038
       O   -18.60290   15.07416  -11.52106
      H1   -19.08209   14.85324  -12.36709
       H   -16.08998   15.11791  -18.60350
       O   -16.62289   14.36117  -18.29310
      H1   -17.50502   14.70544  -18.16994
       H   -14.95917   13.24261  -16.28181
       O   -15.53113   12.95779  -15.53479
      H1   -16.40853   13.18494  -15.92845
       H   -14.27515   17.25517  -14.61274
       O   -13.84584   17.76812  -13.92292
      H1   -14.50605   17.97986  -13.26622
       H   -14.45586   15.45836  -16.26965
       O   -14.90679   16.25329  -15.97293
      H1   -15.77962   15.93279  -15.70962

