51
frame 9 | Written by MDAnalysis XYZWriter (release 2.4.3)
       H    18.35842  -10.03789   12.62532
       O    18.78278  -10.88246   12.41357
      H1    18.60666  -11.50311   13.20371
       H    15.36379  -12.92404   11.84898
       O    15.17989  -13.38067   12.63902
      H1    15.57596  -12.81132   13.36457
       H    16.59151  -14.14996   17.29495
       O    16.58718  -14.86818   17.94835
      H1    17.47182  -15.29445   17.83479
       H    19.37444  -15.14488   14.90609
       O    19.26345  -15.87969   15.50271
      H1    19.83701  -16.61350   15.16348
       H    17.50593  -11.70774   11.24422
       O    16.65313  -11.82613   10.75852
      H1    16.96811  -12.20971    9.89528
       H    13.74924  -11.10076   14.54588
       O    14.60689  -10.94870   14.91538
      H1    14.59330  -10.18051   15.50220
       H    15.25987  -12.85873   15.83251
       O    16.18514  -13.13728   16.01263
      H1    16.70816  -12.36655   15.85057
       H    18.84404  -10.72595   15.81248
       O    17.93032  -10.93447   15.51702
      H1    17.60102  -10.11226   15.06957
       H    19.09343  -12.76348   14.57120
       O    18.98095  -13.42152   13.87951
      H1    18.23089  -14.01636   13.94762
       H    14.79038  -15.50621   14.96699
       O    13.97885  -14.99887   14.55416
      H1    14.41038  -14.46131   13.94767
       H    14.60897  -10.76661   18.91388
       O    15.37818  -10.18972   18.56160
      H1    16.26744  -10.61974   18.76481
       H    14.47260   -9.15431   17.27959
       O    13.92211   -8.92685   16.48041
      H1    12.98384   -9.11566   16.72326
       H    14.68503  -10.14073   13.29710
       O    14.62286  -10.01367   12.28970
      H1    15.41791   -9.53298   12.02046
       H    16.14126  -14.72917   12.32231
       O    16.79617  -15.42018   12.06606
      H1    16.52034  -16.22133   12.61590
       H    15.78631  -16.07620   16.53493
       O    15.95893  -16.51009   15.67401
      H1    15.95638  -17.39481   15.98305
       H    18.19445   -7.92240   13.97978
       O    17.43732   -8.36609   14.38027
      H1    16.65314   -7.85724   14.14498
       H    18.29271  -10.79735   20.17609
       O    18.09038  -10.82002   19.22227
      H1    18.48669  -10.00432   18.89688

