51
frame 8 | Written by MDAnalysis XYZWriter (release 2.4.3)
       H    -7.05642    9.55148  -17.74268
       O    -7.83030   10.05711  -17.51035
      H1    -7.52777   10.98286  -17.62916
       H    -5.41028    5.23449  -16.47184
       O    -5.80116    6.05936  -16.11959
      H1    -5.41013    6.14568  -15.23380
       H    -9.72574    7.45212  -16.31321
       O    -9.27805    8.01682  -15.68598
      H1    -8.89497    8.73469  -16.20334
       H    -4.65169   13.07710  -15.19499
       O    -4.83967   12.25109  -15.56971
      H1    -4.67188   11.50673  -14.96192
       H    -5.92701    7.55496  -17.39399
       O    -6.00265    8.36121  -17.94746
      H1    -5.20931    8.80542  -17.74918
       H    -5.85550    7.38341  -13.17847
       O    -5.43991    6.54939  -12.89978
      H1    -4.58472    6.54570  -13.29645
       H    -2.32582    7.47701  -17.61318
       O    -2.48665    7.94909  -16.73563
      H1    -2.87556    8.85258  -16.93205
       H    -1.45407   10.04609  -14.26535
       O    -1.46242   10.94076  -14.74238
      H1    -2.01862   10.78362  -15.49366
       H     1.13418    8.47948  -19.11355
       O     0.19720    8.46096  -19.38666
      H1    -0.30359    7.91618  -18.83883
       H    -0.55419    7.79589  -16.05627
       O     0.27960    8.10071  -15.63859
      H1     0.63901    7.41209  -15.04435
       H    -7.87704   12.92994  -19.49532
       O    -7.12867   12.57334  -18.99825
      H1    -6.94645   13.31201  -18.32927
       H    -5.04822    4.42794  -18.71992
       O    -5.39751    4.06806  -17.80937
      H1    -6.06479    3.40584  -18.10166
       H    -3.20993    6.70542  -15.21840
       O    -3.19071    5.94866  -14.62008
      H1    -2.36383    5.53680  -14.82049
       H    -7.57011    9.12485  -13.29965
       O    -7.27548    8.45471  -13.97681
      H1    -8.00899    8.23383  -14.61121
       H    -2.60517    5.57158  -18.99178
       O    -1.80591    6.07008  -18.84658
      H1    -1.06245    5.47706  -18.67747
       H    -4.35128    9.16871  -13.81172
       O    -4.87850    9.70226  -14.41867
      H1    -5.74130    9.27933  -14.21101
       H    -3.21959   10.57578  -18.35690
       O    -3.43369   10.32258  -17.43857
      H1    -3.96188   11.08872  -17.06825

