51
frame 9 | Written by MDAnalysis XYZWriter (release 2.4.3)
       H    -0.31384  -12.74449   -6.40328
       O    -0.65352  -13.64605   -6.25000
      H1    -0.93000  -13.80008   -5.34670
       H     1.94797  -11.55325   -6.41930
       O     1.00230  -11.31492   -6.19387
      H1     0.87617  -11.87041   -5.39897
       H     3.72219  -13.60520   -4.11506
       O     3.49578  -13.66156   -5.00154
      H1     2.78749  -14.32972   -5.09078
       H    -0.52237  -12.83563   -3.50403
       O     0.27716  -12.38764   -3.81067
      H1     0.46882  -11.69382   -3.14465
       H     5.58362  -16.52411   -6.70118
       O     5.08520  -16.88342   -5.93346
      H1     5.21549  -16.29846   -5.14605
       H     1.02593  -15.30044   -2.30883
       O     1.19672  -14.37783   -2.16296
      H1     0.87168  -13.89712   -2.94770
       H     4.89248  -13.32468   -8.89292
       O     5.50511  -13.17195   -8.16627
      H1     5.02126  -12.76559   -7.47247
       H     6.38180  -14.90876   -7.89149
       O     6.87527  -15.62733   -7.48719
      H1     7.36204  -16.01607   -8.21233
       H     4.30000  -10.66573   -6.15061
       O     3.88887  -11.45981   -6.52951
      H1     3.84346  -12.12068   -5.81346
       H     2.71184  -11.27225   -8.09348
       O     2.48389  -11.32545   -8.98390
      H1     1.56401  -11.35997   -9.22160
       H     6.54870  -15.41681   -3.66293
       O     5.63387  -15.78898   -3.33022
      H1     5.16549  -15.03426   -2.91502
       H     3.26926  -13.98780   -1.55146
       O     4.05385  -13.79696   -2.04972
      H1     4.63627  -13.25280   -1.45968
       H     0.11238  -17.59363   -2.38759
       O     0.92825  -17.20125   -2.44662
      H1     1.39985  -17.73737   -3.03521
       H     0.45243  -17.50819   -6.03063
       O    -0.49126  -17.84748   -6.13086
      H1    -0.57651  -17.77041   -7.07604
       H     1.83984  -14.96052   -7.41587
       O     1.51143  -15.23812   -6.54853
      H1     0.66314  -14.70332   -6.46274
       H     3.43506   -9.82110   -3.70668
       O     3.58136  -10.77061   -3.51756
      H1     2.84816  -10.84573   -2.90771
       H     3.00975  -19.08938   -6.21628
       O     3.08179  -18.35208   -6.85078
      H1     3.74881  -17.78834   -6.39850

