51
frame 0 | Written by MDAnalysis XYZWriter (release 2.4.3)
       H   -18.80871    2.96951    3.55083
       O   -18.18971    3.27135    2.87230
      H1   -18.26946    2.79705    2.03678
       H   -15.81512    2.14428    4.65018
       O   -16.12531    1.39361    5.10707
      H1   -16.55605    1.71294    5.92405
       H   -20.20588    7.14016    3.54040
       O   -19.59528    7.49163    4.22927
      H1   -18.74139    7.49612    3.67047
       H   -14.32098    0.98307   -0.37444
       O   -14.96227    1.34550    0.35652
      H1   -15.52426    0.58632    0.63170
       H   -17.21920    7.08654   -3.22118
       O   -17.58678    7.93521   -2.90784
      H1   -17.04280    8.22114   -2.13563
       H   -18.00502    6.83423    1.78631
       O   -17.57091    7.56176    2.19651
      H1   -16.65334    7.29610    2.08619
       H   -12.98116    4.11427    1.04808
       O   -13.85388    3.75924    0.87304
      H1   -13.79399    2.81200    0.89522
       H   -17.68829    5.24640   -0.45751
       O   -17.12360    5.33158   -1.24790
      H1   -17.68076    5.88255   -1.81831
       H   -17.42165   10.79320    1.69620
       O   -18.00571   10.13398    1.30017
      H1   -17.89162    9.28126    1.73224
       H   -18.93856    3.43154   -3.97493
       O   -18.95050    3.02651   -3.07089
      H1   -18.01969    2.66466   -2.96149
       H   -16.35111    3.64554    3.25648
       O   -15.39016    3.62168    3.54866
      H1   -14.89752    3.71295    2.72938
       H   -13.80135    6.93370    2.27753
       O   -14.66027    6.94546    1.88112
      H1   -14.55207    6.58585    1.03236
       H   -14.69220    4.56276    6.48987
       O   -14.10322    4.38917    5.71588
      H1   -14.70049    4.21367    4.96816
       H   -17.52321    3.44069   -0.41860
       O   -17.56759    2.66037    0.15421
      H1   -16.69569    2.26701   -0.01719
       H   -19.70961    5.43192    0.87942
       O   -18.76029    5.35934    1.05411
      H1   -18.75721    4.67004    1.74150
       H   -16.90492    9.49710   -0.02371
       O   -16.38757    9.13464   -0.75301
      H1   -16.20811    9.89364   -1.39371
       H   -14.38675    4.85722   -0.14376
       O   -14.61676    5.66559   -0.63407
      H1   -15.44733    5.46936   -1.09263

