51
frame 9 | Written by MDAnalysis XYZWriter (release 2.4.3)
       H     4.69938   12.07787   18.79711
       O     4.31364   12.46713   17.97781
      H1     5.08861   12.60767   17.42724
       H     5.74275   12.69281   14.86537
       O     6.16398   12.05232   15.48672
      H1     5.85152   11.16572   15.15421
       H     3.89195   14.52426   14.46018
       O     4.41494   13.75413   14.18840
      H1     4.24380   13.74276   13.25678
       H     7.65152   11.52255   18.23222
       O     7.45916   10.59478   18.32657
      H1     8.22563   10.06110   18.51426
       H    10.74096    9.46301   11.30462
       O    11.06388   10.34781   11.57889
      H1    11.33314   10.79551   10.78918
       H     6.65147   14.72641   14.64778
       O     7.47287   15.11257   15.04359
      H1     8.04355   14.33595   15.10072
       H    11.30254   13.73566   16.21418
       O    11.44483   12.82291   16.47530
      H1    12.03306   12.53502   15.76931
       H     9.66446   12.58272   15.36075
       O     8.84243   12.71004   14.96231
      H1     8.14665   12.07983   15.27931
       H    14.37613   11.93659   14.72681
       O    13.42213   11.89427   14.56046
      H1    13.14759   10.98388   14.54932
       H     9.31261   13.58528   18.53305
       O     8.83557   12.90630   18.01278
      H1     9.45376   12.71062   17.26768
       H     5.85489   11.95967   11.44015
       O     6.48340   11.28688   11.58920
      H1     7.27682   11.78246   11.76961
       H     9.25983   12.63378   13.07654
       O     9.28587   12.27569   12.17475
      H1     9.84474   11.54638   12.09677
       H     7.68705   16.54322   15.92091
       O     7.86500   17.34306   16.44731
      H1     7.40078   17.16731   17.29301
       H    10.58167   14.87642   10.64269
       O    11.06512   14.10658   10.95906
      H1    10.44312   13.60069   11.46806
       H     7.51175    9.92957   14.40177
       O     6.69771    9.66250   13.95143
      H1     6.67943   10.30264   13.20224
       H     9.98270   15.95973   15.53905
       O    10.75869   15.46650   15.70444
      H1    11.46870   16.11724   15.43859
       H     9.96636    8.81270   15.37872
       O     9.59814    9.60900   15.83953
      H1     9.56926    9.37694   16.76338

