51
frame 9 | Written by MDAnalysis XYZWriter (release 2.4.3)
       H   -12.25827    6.57246   -4.45001
       O   -11.37119    6.83153   -4.10209
      H1   -11.53994    6.85741   -3.10791
       H    -9.71997    8.66559   -7.70287
       O    -9.04529    8.01819   -7.40058
      H1    -9.48341    7.18683   -7.48870
       H   -10.15449    5.13008   -6.59705
       O   -10.05015    5.33392   -7.52761
      H1    -9.55469    4.62973   -7.98947
       H   -10.33674    4.08172   -4.40559
       O    -9.71822    4.65298   -4.90754
      H1   -10.00009    5.53485   -4.69662
       H    -9.67014   11.43823   -7.80565
       O   -10.14401   10.59036   -7.65910
      H1   -10.25682   10.48182   -6.71462
       H   -15.30632    8.48607   -3.04768
       O   -14.47968    7.99924   -2.95965
      H1   -13.86276    8.46192   -2.42064
       H   -12.01959    9.69032   -7.72574
       O   -12.60459    8.98973   -7.83757
      H1   -13.48880    9.38002   -7.74887
       H   -11.91844    8.63961   -9.39169
       O   -11.68158    8.27613  -10.24462
      H1   -12.37487    8.74775  -10.73368
       H   -15.18103    7.14370   -9.48013
       O   -15.52767    7.81019  -10.06720
      H1   -16.11539    7.30787  -10.62545
       H   -14.79917    6.56787   -7.24753
       O   -14.83833    6.10465   -8.07614
      H1   -13.90591    6.00494   -8.34713
       H   -13.49251    3.11035   -7.38451
       O   -14.32496    3.45188   -7.07627
      H1   -14.46519    4.37958   -7.30135
       H   -12.19541    6.64693   -9.36693
       O   -12.24659    5.67982   -9.28952
      H1   -11.60094    5.49626   -8.59341
       H   -18.21276    8.42749   -7.35327
       O   -17.49367    8.48371   -6.71863
      H1   -16.80259    9.08716   -7.05998
       H   -11.44228    9.83734   -4.71539
       O   -10.73740    9.34871   -5.10407
      H1   -10.86159    8.37954   -4.84064
       H   -15.06048   10.53010   -5.90495
       O   -15.51504   11.15264   -5.32722
      H1   -15.06285   12.03644   -5.46965
       H   -13.13016    7.75856   -5.91275
       O   -13.81878    7.13675   -5.68095
      H1   -14.16846    7.47277   -4.85951
       H   -15.48486    8.90933   -8.26904
       O   -15.18753    9.57437   -7.64038
      H1   -15.12962   10.47790   -8.03510

