51
frame 9 | Written by MDAnalysis XYZWriter (release 2.4.3)
       H     3.07074    4.85044  -11.19440
       O     2.89446    4.30207  -10.35758
      H1     3.74572    4.20260   -9.90542
       H     0.47031    4.88248   -8.61609
       O     1.24273    4.82111   -8.09734
      H1     1.87289    4.51950   -8.77368
       H     5.41834    4.05293   -7.73451
       O     4.49449    3.96553   -8.04107
      H1     4.14381    3.34885   -7.34005
       H    -0.14803    2.22906   -8.70413
       O     0.15213    2.20124   -9.64225
      H1    -0.60279    2.01600  -10.21511
       H     5.20144   -0.09128   -9.59940
       O     5.73545    0.06052  -10.38257
      H1     5.26645    0.78350  -10.86941
       H     0.86103    6.50613   -7.53771
       O     0.82245    7.45356   -7.81132
      H1     0.17994    7.81682   -7.18498
       H     2.74767    7.00458  -11.92302
       O     3.19809    6.34543  -12.42461
      H1     2.73519    6.39994  -13.27760
       H     5.23054    5.68213  -13.08344
       O     5.57873    5.23284  -13.81068
      H1     6.43319    4.84983  -13.62078
       H     1.79906    2.76982  -11.95175
       O     1.45347    2.95572  -12.82258
      H1     0.57525    2.49991  -12.94996
       H     1.29837    0.96176  -10.14283
       O     1.79967    0.19531  -10.45769
      H1     2.67609    0.58263  -10.62862
       H     7.27361    3.05988   -6.66045
       O     7.16849    3.70280   -7.33529
      H1     7.72904    4.51283   -7.23170
       H     3.83039    2.06558  -12.32236
       O     3.90640    1.86924  -11.39621
      H1     3.58444    2.62127  -10.85593
       H     7.03129    1.41500   -9.21246
       O     7.73899    2.06186   -9.29061
      H1     7.46060    2.81734   -8.72976
       H     3.84457    1.79826   -5.70076
       O     3.28657    2.16833   -6.34447
      H1     2.40540    2.12524   -5.93756
       H     5.03670    9.13811   -9.01345
       O     5.51569    8.70524   -8.31029
      H1     4.89042    7.94872   -8.10963
       H     3.88363    5.85027   -7.77252
       O     3.92262    6.75447   -7.35442
      H1     3.00010    7.03145   -7.48585
       H     4.71781   -0.66461   -7.09821
       O     4.36728   -0.15887   -7.83931
      H1     4.06477    0.69529   -7.43391

