51
frame 9 | Written by MDAnalysis XYZWriter (release 2.4.3)
       H    14.26626    8.45385    2.31073
       O    14.13892    7.47988    2.22765
      H1    14.39655    7.31878    1.35859
       H    17.83139   11.32932   -2.87352
       O    17.28090   10.63594   -3.22493
      H1    16.61086   10.49613   -2.55949
       H    11.31818    8.90199   -2.09684
       O    11.79256    9.32540   -1.36073
      H1    11.43339    8.86013   -0.58093
       H    11.52297    2.66351   -1.62931
       O    11.87414    3.52054   -1.94447
      H1    12.51516    3.84073   -1.30982
       H    17.48290    6.64384   -5.92944
       O    17.26929    6.53171   -4.99994
      H1    17.74376    5.77516   -4.60709
       H    18.67314    9.82374    0.44506
       O    19.29888    9.16068    0.90730
      H1    18.89428    8.25883    0.95040
       H    16.54833    3.55261   -2.66077
       O    15.65805    3.31886   -2.41503
      H1    15.14068    3.45869   -3.24866
       H    11.94002    5.02647   -3.45007
       O    12.10049    5.81612   -3.97338
      H1    12.92846    6.19682   -3.72591
       H    18.58847    9.26569   -3.50221
       O    18.97240    8.49904   -3.97624
      H1    18.19694    7.96885   -4.24941
       H    10.77132    7.15835    2.63304
       O    11.51490    6.56135    2.61841
      H1    12.33800    7.00775    2.55237
       H    16.21993    7.46807   -0.59675
       O    15.31790    7.51272   -1.00772
      H1    15.32593    7.17248   -1.89587
       H    14.14144   10.43516   -1.95056
       O    15.04170   10.20813   -1.71392
      H1    14.98593    9.27447   -1.40152
       H    15.24934    6.86554   -4.14522
       O    14.44283    7.00219   -3.71267
      H1    14.11170    7.81512   -4.07849
       H    14.23116   12.96692    0.12115
       O    14.90671   12.27926    0.31888
      H1    15.23229   11.76542   -0.43469
       H    14.71736   10.97251    1.87183
       O    14.67140   10.30075    2.53803
      H1    15.53457   10.08253    2.89516
       H    14.39565    4.71473   -0.93740
       O    13.78913    4.57832   -0.20018
      H1    14.33316    4.35748    0.52964
       H    17.59548    5.84749   -0.44240
       O    17.79285    6.78163   -0.28744
      H1    18.50840    7.00278   -0.94637

