51
frame 10 | Written by MDAnalysis XYZWriter (release 2.4.3)
       H   -13.37044  -11.26583  -18.58230
       O   -14.12059  -11.87009  -18.80817
      H1   -14.97168  -11.43494  -18.47898
       H   -12.39424  -13.39692  -17.54786
       O   -12.59389  -13.01398  -16.70886
      H1   -11.84194  -12.44699  -16.43155
       H   -15.70828   -9.75450  -14.47701
       O   -15.01380   -9.07965  -14.57879
      H1   -14.20976   -9.49130  -14.18459
       H   -13.06764  -15.65330  -14.79534
       O   -12.45065  -14.92410  -14.76508
      H1   -12.44949  -14.40728  -15.53749
       H   -18.29085  -13.98238  -18.13404
       O   -17.76624  -14.55995  -17.56386
      H1   -18.39104  -15.02211  -17.02450
       H   -15.68187  -10.05350  -17.63122
       O   -16.32098  -10.81689  -17.65089
      H1   -16.56393  -10.97233  -16.76575
       H   -19.34532  -10.40701  -17.71792
       O   -19.21395   -9.62559  -18.22175
      H1   -18.26707   -9.46049  -18.29651
       H   -15.19281  -12.83252  -12.47728
       O   -15.75917  -12.59081  -13.29940
      H1   -15.55103  -13.23297  -14.03979
       H   -15.83776  -13.27888  -16.59748
       O   -15.21667  -13.51127  -15.88771
      H1   -14.36920  -13.02278  -16.02613
       H   -13.78533  -10.78528  -11.08720
       O   -14.36477  -10.41380  -11.72325
      H1   -14.51146  -11.22570  -12.28720
       H   -14.75429  -13.70016  -18.71135
       O   -15.18096  -14.52069  -19.05772
      H1   -15.95168  -14.74321  -18.58442
       H   -17.36599  -16.53658  -17.70902
       O   -16.91256  -17.37590  -17.47980
      H1   -15.98689  -17.14104  -17.19162
       H   -17.90272  -17.33451  -13.47122
       O   -17.43636  -16.45253  -13.22376
      H1   -18.25444  -15.96633  -13.04982
       H   -18.64595  -13.80637  -12.84770
       O   -18.49122  -12.98345  -13.36435
      H1   -17.56988  -12.77267  -13.17467
       H   -16.81854  -11.60444  -14.49212
       O   -16.98383  -10.78021  -14.92966
      H1   -17.94995  -10.72902  -15.02154
       H   -14.57609  -17.44282  -14.29747
       O   -14.65831  -16.70555  -13.66400
      H1   -15.59093  -16.53936  -13.63177
       H   -13.41117   -9.45704  -17.14893
       O   -14.27520   -9.08991  -17.20648
      H1   -14.65888   -9.08471  -16.35556

