51
frame 10 | Written by MDAnalysis XYZWriter (release 2.4.3)
       H    18.19036  -12.73973    2.68608
       O    18.62760  -12.26723    1.99550
      H1    19.58747  -12.15474    2.32218
       H    19.02931  -13.63803    8.52942
       O    18.35179  -13.49263    7.91889
      H1    18.84073  -13.44780    7.05734
       H    15.62342  -13.59203    5.71060
       O    15.92275  -13.57829    4.75328
      H1    16.19968  -12.65120    4.60866
       H    18.93439  -18.90966    2.08259
       O    18.40226  -19.26245    2.81026
      H1    17.54135  -19.52223    2.46408
       H    19.91215  -15.53209    9.61658
       O    19.80285  -15.25507   10.54301
      H1    18.85986  -15.17253   10.66819
       H    18.81238  -15.39174    5.74887
       O    19.75624  -15.18100    5.87038
      H1    20.12754  -15.04636    4.93406
       H    14.40632  -13.56157    8.02921
       O    14.65396  -13.84851    7.10312
      H1    14.48253  -14.76997    6.97298
       H    15.13365  -19.08754   10.15155
       O    15.88747  -19.65316   10.21169
      H1    16.08031  -19.64500   11.14123
       H    17.15587  -16.58749    4.31826
       O    16.40144  -16.38601    3.71313
      H1    15.98630  -15.56859    4.04480
       H    17.53370  -18.77921    9.30390
       O    18.12429  -18.08950    8.93243
      H1    18.66246  -17.93810    9.69375
       H    19.06644  -18.02593    5.94685
       O    18.25453  -18.04869    5.38908
      H1    18.44501  -18.48109    4.50192
       H    13.52830  -18.79283    5.42699
       O    13.96996  -18.95662    6.32354
      H1    13.31252  -19.08732    7.01731
       H    17.72576  -16.64611    0.86079
       O    16.73841  -16.46243    0.99835
      H1    16.62759  -16.24560    1.94496
       H    17.56581  -16.59071    7.29630
       O    17.21469  -15.81257    6.90512
      H1    17.44776  -15.06937    7.50118
       H    15.62577  -16.37959    6.78087
       O    14.63267  -16.46843    6.73120
      H1    14.47724  -17.44893    6.46479
       H    13.97901  -17.98016    2.71266
       O    14.49354  -18.34362    3.46168
      H1    15.11430  -17.58751    3.63500
       H    16.05401  -14.65723    9.50955
       O    16.56992  -15.25866   10.03319
      H1    15.99700  -16.06388    9.87254

