51
frame 10 | Written by MDAnalysis XYZWriter (release 2.4.3)
       H    -4.38089  -13.53614  -14.52236
       O    -4.27394  -13.14767  -13.61646
      H1    -4.38691  -13.82304  -12.94280
       H    -2.29175  -13.23285  -18.37790
       O    -2.10797  -12.55404  -19.07144
      H1    -1.71020  -13.03755  -19.84247
       H    -4.77226  -17.76776  -16.63281
       O    -4.80701  -16.86418  -16.17004
      H1    -5.38804  -17.12486  -15.44221
       H     0.11313  -14.10475  -15.00671
       O     0.43001  -14.92715  -15.37490
      H1     0.79138  -15.33186  -14.61771
       H     1.01803  -16.12782  -16.74832
       O     1.21643  -16.46767  -17.61725
      H1     0.71085  -17.25211  -17.67067
       H    -2.61573  -16.76157  -18.01209
       O    -2.92435  -17.42138  -18.60842
      H1    -2.61652  -17.05998  -19.45103
       H    -4.27004  -15.18233  -16.12738
       O    -4.11079  -14.23846  -16.07090
      H1    -4.86016  -13.81460  -16.56499
       H    -0.04496  -12.60031  -17.64392
       O     0.59990  -11.99626  -17.21357
      H1     0.41907  -11.14759  -17.67132
       H    -3.79550  -12.02606  -19.20969
       O    -4.74199  -11.93697  -19.29355
      H1    -5.11916  -11.05525  -19.27979
       H    -4.29615  -10.63123  -15.32444
       O    -3.50563  -11.03482  -15.61994
      H1    -3.43684  -10.65896  -16.48774
       H    -0.86012  -15.29698  -16.95395
       O    -1.74690  -15.25850  -17.32771
      H1    -2.43439  -14.95570  -16.65370
       H     0.36948  -10.01703  -19.09712
       O    -0.45809   -9.86488  -18.68425
      H1    -1.08374  -10.52671  -19.01405
       H    -6.20377  -15.79091  -19.06778
       O    -5.95889  -15.25311  -18.28590
      H1    -5.48349  -15.87718  -17.72583
       H    -3.26936   -8.58069  -16.96648
       O    -3.96820   -8.95901  -17.48978
      H1    -3.94510   -8.53928  -18.36029
       H    -0.34668  -12.13260  -15.62528
       O    -0.77226  -12.35975  -14.77485
      H1    -1.70251  -12.29216  -15.03890
       H    -6.88306  -13.75761  -18.34576
       O    -7.48924  -13.11186  -17.94201
      H1    -6.99049  -12.31792  -17.95342
       H    -0.90564   -9.27527  -17.15432
       O    -1.10668   -8.82759  -16.34213
      H1    -0.29141   -8.33457  -16.02211

