51
frame 10 | Written by MDAnalysis XYZWriter (release 2.4.3)
       H   -18.99785   -2.71322  -12.65579
       O   -18.61501   -3.50161  -13.02783
      H1   -19.31605   -4.12256  -13.12511
       H   -17.29629   -1.23171  -14.90673
       O   -16.74672   -1.24583  -14.11081
      H1   -16.55605   -2.18591  -14.16540
       H   -15.61110   -2.40092  -10.69227
       O   -15.48700   -3.29746  -11.07497
      H1   -15.61173   -3.31121  -12.00794
       H   -15.30973   -2.20371  -16.35991
       O   -14.69457   -1.48375  -16.14210
      H1   -15.25881   -0.94616  -15.56476
       H   -16.81500   -8.13584  -15.20025
       O   -17.62065   -7.66450  -15.07414
      H1   -17.73857   -7.53242  -14.13130
       H   -16.97575   -4.13640  -13.38054
       O   -16.04387   -4.10064  -13.61990
      H1   -15.60569   -4.94294  -13.30265
       H   -11.76155   -5.42981  -12.12846
       O   -11.47883   -5.49046  -11.18809
      H1   -11.98467   -4.75847  -10.74959
       H   -17.94939   -0.51829  -16.83599
       O   -18.29262   -1.30045  -16.31991
      H1   -17.76022   -1.98392  -16.78512
       H   -15.95409   -3.99454   -7.74384
       O   -15.84349   -4.80985   -8.29379
      H1   -16.15650   -4.40774   -9.11784
       H   -18.63021   -6.27231  -11.06075
       O   -18.33468   -5.60529  -10.40359
      H1   -17.74321   -6.15414   -9.91606
       H   -13.13667   -1.42536  -15.11140
       O   -12.34936   -1.40950  -14.55569
      H1   -12.49544   -0.63010  -13.99955
       H   -13.07680   -4.68109  -16.11431
       O   -12.82221   -4.73933  -17.02601
      H1   -13.38623   -4.12090  -17.41983
       H   -19.22466   -7.94239  -12.05717
       O   -18.73671   -7.28873  -12.60675
      H1   -19.36233   -6.69654  -13.07064
       H   -16.97415    1.34729  -11.82968
       O   -16.93297    1.39540  -12.80504
      H1   -16.82643    0.50116  -13.10197
       H   -17.15682   -3.98693  -16.99751
       O   -16.58383   -3.48203  -16.37758
      H1   -16.48810   -4.09351  -15.57719
       H   -13.34224   -3.52023   -9.08916
       O   -13.08944   -3.54892  -10.01888
      H1   -13.99926   -3.39263  -10.43120
       H   -15.09601   -6.79661  -12.18832
       O   -14.74936   -6.47132  -13.00949
      H1   -14.61232   -7.35296  -13.42665

