51
frame 10 | Written by MDAnalysis XYZWriter (release 2.4.3)
       H    15.36355  -11.92258   12.60677
       O    15.40353  -12.52378   13.43796
      H1    14.97833  -12.02838   14.12761
       H    17.41020  -14.12898   17.46929
       O    16.89667  -14.91380   17.60705
      H1    17.45607  -15.65752   17.97641
       H    13.05955  -10.93623   15.15302
       O    14.00132  -10.73081   15.22678
      H1    14.25288  -10.23281   15.99931
       H     9.98732  -10.74861   17.36925
       O    10.82828  -10.32866   17.67941
      H1    10.84472  -10.55976   18.64492
       H    13.79806   -7.89576   16.55507
       O    14.23549   -7.59478   15.73895
      H1    13.55145   -7.65035   15.09658
       H    16.15878  -12.44245   17.02937
       O    17.15696  -12.36255   16.99937
      H1    17.34859  -11.93234   16.15727
       H    19.00466  -10.36814   15.43204
       O    18.19317  -10.69259   14.93618
      H1    17.84074   -9.93026   14.45898
       H    17.64594  -13.87124   15.62346
       O    18.32801  -14.28423   15.10319
      H1    18.08725  -14.45823   14.16870
       H    14.60777  -10.58384   18.76937
       O    15.27466  -10.28941   18.11057
      H1    16.10794  -10.46380   18.50214
       H    13.40225   -9.27265   18.06436
       O    13.06229   -8.38586   17.98269
      H1    12.15232   -8.43957   17.92782
       H    13.33559  -14.11605   17.91517
       O    12.62938  -13.50750   17.75845
      H1    12.50462  -13.51378   16.79482
       H    14.82897  -15.77247   19.66919
       O    14.58250  -15.08733   19.02040
      H1    15.42627  -15.03949   18.56888
       H    19.82859   -8.04718   19.94436
       O    19.47357   -7.89933   19.06547
      H1    18.86712   -8.55744   18.80068
       H    17.54094   -7.88775   14.05926
       O    16.83959   -8.55264   13.92864
      H1    16.19677   -8.29064   14.60491
       H    15.98948   -6.84234   15.75304
       O    16.86077   -6.41327   15.82767
      H1    16.97052   -5.66898   15.14879
       H    19.20852  -10.50781   18.88271
       O    18.27142  -10.61626   18.74533
      H1    18.06146  -11.38136   18.20279
       H    18.20142   -6.23433   18.72952
       O    17.61228   -5.58228   18.33351
      H1    17.28471   -5.98428   17.48532

