51
frame 10 | Written by MDAnalysis XYZWriter (release 2.4.3)
       H    12.12228   -0.86576  -10.71685
       O    11.33635   -0.33865  -10.32214
      H1    11.30878    0.51548  -10.83911
       H    12.03527    0.21950   -6.03315
       O    12.19443   -0.41818   -6.80552
      H1    11.55905   -0.15208   -7.50136
       H    12.77489    3.52809  -12.04967
       O    13.20467    4.33458  -12.30497
      H1    14.15024    3.96841  -12.36755
       H     9.46652    1.44020   -7.81757
       O     9.14213    0.65521   -8.34333
      H1     8.63432    1.05495   -9.07800
       H    10.77591   -2.85097  -13.21330
       O    11.68472   -3.12382  -13.26096
      H1    12.09850   -2.31071  -13.56880
       H    13.89579   -2.59734  -11.61918
       O    13.46924   -2.25598  -10.79461
      H1    12.90099   -2.93553  -10.34514
       H     8.49471    2.29167  -11.58441
       O     9.03308    2.47214  -12.37353
      H1     8.73936    3.40145  -12.63496
       H     6.86509    0.88307  -10.26152
       O     7.49113    1.62111  -10.33363
      H1     7.22248    2.24930   -9.66245
       H    13.17790    2.41558  -13.67825
       O    13.28014    1.53162  -13.36864
      H1    13.93337    1.58928  -12.65602
       H     9.45684   -1.11897  -12.86830
       O     9.17304   -0.29496  -13.35695
      H1     9.38483    0.43966  -12.76889
       H    10.38033   -1.59082  -11.08413
       O     9.74577   -2.24709  -11.45644
      H1     8.90573   -2.20294  -10.94321
       H     9.08233   -1.20390   -8.31893
       O     8.82218   -2.03037   -7.83414
      H1     8.80257   -1.75014   -6.90328
       H    11.99453   -3.40833   -8.00640
       O    11.37007   -3.45726   -8.73118
      H1    10.58253   -3.00719   -8.44396
       H    15.53553    1.07282  -11.25160
       O    15.19543    1.96919  -11.34515
      H1    14.50795    1.90600  -10.67041
       H    14.29361   -1.96971  -14.47474
       O    13.53434   -1.43341  -14.01294
      H1    13.56616   -0.53617  -14.37405
       H    11.97457    1.98469  -12.16795
       O    11.51598    2.32450  -11.36411
      H1    10.59793    2.55056  -11.66110
       H    13.51956    1.22712   -8.44477
       O    13.66302    2.09372   -8.87514
      H1    12.85818    2.42518   -9.27550

