51
frame 10 | Written by MDAnalysis XYZWriter (release 2.4.3)
       H    12.71716   -7.17146   10.13162
       O    11.86248   -6.74941   10.26733
      H1    11.90189   -6.31551   11.14722
       H     5.16935   -7.99765    9.86546
       O     5.85542   -7.92663   10.59748
      H1     6.40801   -8.73186   10.46810
       H     4.68645   -1.69241   12.70152
       O     4.66815   -2.32202   11.95377
      H1     5.14037   -1.88141   11.21381
       H     8.16566   -3.78865   12.33799
       O     8.44340   -3.95251   11.42386
      H1     8.01526   -4.72778   11.05340
       H     5.29938   -3.15717    8.87669
       O     6.14038   -2.92430    9.23883
      H1     6.42074   -3.71912    9.68576
       H     9.05980   -9.59266   13.01880
       O     9.17761   -8.67340   12.73981
      H1     9.53043   -8.71332   11.82994
       H     7.63888   -6.07960    6.47530
       O     8.07746   -5.62021    7.22677
      H1     8.98486   -5.96646    7.26959
       H     6.82264   -6.62973    9.89488
       O     7.15169   -5.70806    9.75786
      H1     7.26580   -5.64119    8.80012
       H     8.57319   -1.09941    9.52321
       O     8.21157   -1.16656   10.46113
      H1     8.26938   -2.08783   10.77520
       H     6.30255   -0.93518    9.72283
       O     5.63493   -0.23643    9.76891
      H1     5.86811    0.37134   10.52058
       H     7.52773   -4.87644   14.23191
       O     7.67262   -3.90210   14.25535
      H1     8.20029   -3.81389   15.06153
       H     4.88993   -3.98471   11.72871
       O     4.70062   -4.94050   11.66615
      H1     5.37201   -5.30947   11.02558
       H     4.70151   -6.11188   12.78762
       O     4.86137   -6.84490   13.40448
      H1     5.04112   -7.66371   12.94721
       H    10.93000   -5.13178    7.76177
       O    10.81499   -6.11557    7.67423
      H1    11.03201   -6.37367    8.56936
       H     6.59652   -6.84049   13.48284
       O     7.49803   -6.60289   13.77664
      H1     8.11435   -7.34366   13.50572
       H    12.31744   -3.84363   11.59786
       O    13.25691   -3.46035   11.34631
      H1    13.76647   -3.54036   12.15785
       H    10.13649   -4.83186   12.17000
       O    11.07544   -5.03500   12.35646
      H1    11.07890   -5.19921   13.31305

