51
frame 10 | Written by MDAnalysis XYZWriter (release 2.4.3)
       H    -0.50639    8.77492   -6.07831
       O    -0.47536    8.38656   -6.95041
      H1    -0.97989    9.05278   -7.45643
       H     0.69174    4.86436   -8.03803
       O     1.49812    4.92167   -8.54885
      H1     1.29458    4.76503   -9.45799
       H     0.62420   12.25643  -11.73535
       O    -0.34659   12.26578  -11.50938
      H1    -0.66258   11.37882  -11.40361
       H     0.12982    6.47610  -14.05118
       O    -0.39723    6.48226  -13.23587
      H1     0.17322    6.05149  -12.58157
       H    -1.96770    6.61938  -12.74965
       O    -2.75440    6.69417  -12.18771
      H1    -3.49506    6.47405  -12.76420
       H     1.26892    8.43369  -11.20511
       O     1.29132    8.60360  -12.19138
      H1     0.46999    8.19199  -12.49543
       H     1.41919    6.60991   -8.64668
       O     1.70258    7.55042   -8.78509
      H1     1.23612    8.12017   -8.14523
       H    -2.14030    9.75800  -10.64942
       O    -2.28589   10.48151  -11.22787
      H1    -2.82133   11.17029  -10.69650
       H     1.69837    4.48294  -11.16906
       O     0.87917    4.99246  -11.19272
      H1     0.43531    4.52000  -11.92768
       H    -1.44879    7.35531  -10.63909
       O    -0.88790    7.99297  -10.20999
      H1    -0.30634    7.50699   -9.56592
       H    -2.94341    4.84531   -9.76100
       O    -3.27833    4.83297   -8.86948
      H1    -3.79848    5.57601   -8.72971
       H    -3.44028   10.43349   -7.78818
       O    -2.69071    9.74330   -7.64853
      H1    -3.03131    9.07604   -7.09018
       H    -3.67129    7.61106  -10.21531
       O    -4.06043    7.80985   -9.38844
      H1    -3.29399    8.27531   -8.90680
       H    -5.27857    9.34432   -9.68214
       O    -6.14470    9.80803   -9.67304
      H1    -6.76623    9.23873   -9.17000
       H    -2.28640    8.80632  -14.18881
       O    -2.41186    9.78055  -14.02219
      H1    -2.51307    9.92774  -13.07847
       H    -1.14685    6.00888   -6.65457
       O    -0.96590    5.19002   -7.13591
      H1    -1.74110    5.16825   -7.70038
       H     2.10901   10.81568   -7.94219
       O     2.27493   10.82703   -8.88923
      H1     2.07634   11.73878   -9.06177

