51
frame 10 | Written by MDAnalysis XYZWriter (release 2.4.3)
       H   -18.11925   13.23430   -5.83889
       O   -18.50277   14.09459   -5.66516
      H1   -19.25391   14.04601   -6.23627
       H   -14.42976   12.20572  -10.03691
       O   -14.72973   12.42983   -9.12129
      H1   -15.33051   13.16944   -9.18369
       H   -13.07138   15.61819   -3.62666
       O   -13.81280   15.20278   -3.16779
      H1   -14.57075   15.82946   -3.11375
       H   -14.21295   14.14175   -4.56182
       O   -14.37416   13.40642   -5.16625
      H1   -13.64313   13.32955   -5.84506
       H   -11.21844   16.03755   -4.83330
       O   -11.99814   16.52206   -5.08416
      H1   -11.65678   17.45987   -5.04714
       H   -16.09182   17.59236   -2.49948
       O   -16.26047   16.71048   -2.89967
      H1   -16.51071   16.97705   -3.79470
       H   -14.08230   13.36033   -2.33669
       O   -13.85682   12.78008   -1.56877
      H1   -14.11143   11.90966   -1.88267
       H   -11.25998   11.18209   -1.93041
       O   -11.62148   11.68593   -2.64868
      H1   -12.24253   12.18725   -2.11409
       H   -17.65266   13.58007   -2.15655
       O   -17.96323   12.74934   -2.69125
      H1   -17.89752   13.03124   -3.59006
       H   -13.29221   16.24023   -8.05611
       O   -12.48535   15.97924   -7.63050
      H1   -12.48799   16.32790   -6.72502
       H   -10.23711   12.22612   -8.93382
       O   -10.28747   11.79995   -8.03785
      H1   -11.10771   12.15867   -7.73013
       H   -13.23630   12.94814   -7.99503
       O   -12.60823   13.18815   -7.29491
      H1   -12.43069   14.15662   -7.38844
       H   -15.60201   17.32319   -8.88938
       O   -15.04123   16.48792   -8.82161
      H1   -15.38277   15.92722   -8.15376
       H   -17.67531   11.39253   -6.90428
       O   -17.46638   11.56071   -5.97476
      H1   -16.64991   11.11769   -5.81008
       H   -10.03740   12.69943   -3.50931
       O    -9.66382   13.55694   -3.68685
      H1    -8.79436   13.47966   -4.09806
       H   -15.36877    9.18953   -8.99491
       O   -15.47594    9.81457   -8.28288
      H1   -15.38934   10.71399   -8.54272
       H   -15.44428   14.56854   -6.02485
       O   -16.15885   14.97245   -6.54162
      H1   -17.00850   14.74766   -6.11242

