51
frame 9 | Written by MDAnalysis XYZWriter (release 2.4.3)
       H   -14.68388   12.20490   -9.73596
       O   -14.96867   12.16388   -8.85003
      H1   -15.52223   12.95922   -8.70401
       H   -15.26591   12.65546  -12.32318
       O   -14.97522   11.78154  -11.90156
      H1   -15.67417   11.46439  -11.33979
       H   -15.86720   15.84639  -12.35341
       O   -16.34735   16.70310  -12.28014
      H1   -16.16406   17.07814  -11.44757
       H   -11.28644   18.40369  -10.31396
       O   -11.30399   18.53242  -11.28015
      H1   -10.54029   18.02913  -11.54154
       H   -14.00313   14.19271   -5.05603
       O   -14.32495   13.76005   -5.88072
      H1   -13.74828   13.94016   -6.60824
       H   -10.43967   17.09541   -8.29334
       O   -10.98557   17.80966   -8.63752
      H1   -11.08551   18.36208   -7.89191
       H   -14.33596   14.52489  -13.35635
       O   -15.30839   14.49838  -13.24462
      H1   -15.73456   14.29491  -14.10954
       H   -18.00902   14.32174   -8.58111
       O   -17.32658   13.77290   -8.06197
      H1   -17.20089   14.20329   -7.17379
       H   -14.26724   16.86206   -9.75162
       O   -14.37483   15.92323   -9.62919
      H1   -13.53647   15.66301   -9.96385
       H   -13.36341   16.97836   -6.11329
       O   -12.41570   16.99692   -6.04607
      H1   -12.15825   16.37135   -5.35583
       H   -12.87671   15.42228   -8.23311
       O   -12.24921   14.95638   -7.70883
      H1   -12.04517   15.69956   -7.06504
       H   -15.31251   17.72149   -7.14259
       O   -15.07061   16.85020   -6.77696
      H1   -15.62287   16.33209   -7.30387
       H   -17.84998   15.55573  -11.82038
       O   -18.60290   15.07416  -11.52106
      H1   -19.08209   14.85324  -12.36709
       H   -12.47151   15.14689  -11.64984
       O   -12.06446   15.36438  -10.83654
      H1   -11.78634   16.31626  -11.07363
       H   -14.27515   17.25517  -14.61274
       O   -13.84584   17.76812  -13.92292
      H1   -14.50605   17.97986  -13.26622
       H   -10.53433   14.08319  -10.31353
       O    -9.63989   13.70605  -10.32785
      H1    -9.04706   14.42231  -10.48915
       H   -15.84095   14.59621   -5.79400
       O   -16.76577   14.67583   -5.75283
      H1   -17.14878   14.06645   -5.08886

