51
frame 10 | Written by MDAnalysis XYZWriter (release 2.4.3)
       H   -15.10677   -5.74277   14.98851
       O   -14.93403   -4.94273   14.50614
      H1   -14.74874   -4.23385   15.14072
       H   -12.82180   -2.99560   16.06228
       O   -11.94090   -2.95863   15.69610
      H1   -11.89486   -3.40467   14.86437
       H   -13.29001   -7.04346   10.24221
       O   -14.12753   -7.47435   10.00134
      H1   -14.46760   -7.75309   10.82794
       H   -15.53208   -3.53186   13.20667
       O   -15.63844   -2.81286   12.58448
      H1   -16.46495   -2.39294   12.77455
       H   -16.28661   -3.90975   11.06478
       O   -16.22428   -4.17471   10.10947
      H1   -15.29350   -4.13016    9.94983
       H   -13.15340   -2.34427   11.88120
       O   -13.15466   -2.31006   10.90864
      H1   -13.84933   -1.74488   10.58343
       H   -14.77685   -1.17525   12.85154
       O   -14.37161   -0.32536   13.03591
      H1   -13.49472   -0.43394   12.56083
       H   -11.09074   -6.63135   10.01234
       O   -11.24111   -7.18058   10.78423
      H1   -11.21003   -6.64854   11.59444
       H    -8.32202   -5.17552   13.12036
       O    -8.99640   -5.48889   13.65665
      H1    -9.70135   -4.81557   13.80120
       H   -12.14647   -4.57336   12.86470
       O   -11.77753   -3.67679   13.06383
      H1   -11.09160   -3.37908   12.46678
       H    -9.59532   -3.10774   17.07819
       O    -9.87016   -4.06314   17.15421
      H1   -10.55366   -4.11482   16.49809
       H   -11.39974   -5.53616    7.75217
       O   -11.24821   -5.25988    8.71940
      H1   -12.06531   -4.72357    8.83252
       H    -9.20760   -7.35957   13.85685
       O    -9.16051   -8.30849   14.09757
      H1    -8.76781   -8.83901   13.36992
       H    -8.36145   -2.31979   11.60205
       O    -9.28863   -2.13026   11.93700
      H1    -9.81050   -1.92165   11.13147
       H   -11.66220   -1.38257   10.43245
       O   -10.87695   -1.44329    9.87794
      H1   -10.48484   -0.53538    9.79146
       H   -13.00856   -7.05026   12.80824
       O   -12.93792   -6.17163   13.10885
      H1   -13.62206   -6.00450   13.80661
       H   -13.53542   -3.18707    9.17435
       O   -13.66052   -3.94084    8.56090
      H1   -13.03882   -3.65109    7.83532

