51
frame 11 | Written by MDAnalysis XYZWriter (release 2.4.3)
       H   -16.71023   -4.00245   15.10823
       O   -15.73597   -3.85628   15.09073
      H1   -15.64817   -3.47474   15.98502
       H   -13.28258   -2.96467   16.16914
       O   -12.45397   -3.05565   15.68290
      H1   -12.59004   -3.36583   14.77938
       H   -15.60154   -3.08308   13.22699
       O   -15.42950   -2.81113   12.30412
      H1   -16.25527   -2.34464   12.02573
       H   -15.51875    2.48662   13.44602
       O   -16.02277    3.01241   14.07775
      H1   -15.71452    3.94824   13.93054
       H   -14.40423    0.81065   12.64377
       O   -14.64624    1.62489   12.18904
      H1   -15.43307    1.36119   11.70589
       H   -18.23395   -3.31687   15.06892
       O   -18.43990   -4.14724   14.66758
      H1   -18.53526   -4.92936   15.31512
       H   -14.26667   -1.56072   12.68193
       O   -13.82083   -0.75745   13.06230
      H1   -12.91298   -1.01854   13.10356
       H   -18.62860   -2.12163   18.13926
       O   -18.38481   -1.13351   18.27158
      H1   -19.25547   -0.72294   18.46444
       H   -13.81657    2.30960   19.14861
       O   -13.80101    1.38471   18.90221
      H1   -14.03037    0.83506   19.73072
       H   -16.75779    0.84245   18.87448
       O   -16.98021    0.65190   19.80390
      H1   -17.39857   -0.20460   19.63715
       H   -14.49116   -2.68885   18.16653
       O   -14.62428   -2.65929   17.20455
      H1   -15.12538   -1.84525   16.99051
       H   -18.73871   -0.40493   12.67023
       O   -18.13665   -1.11812   12.65953
      H1   -18.04447   -1.43010   13.59885
       H   -15.96988    4.59586   16.67319
       O   -15.30118    3.81286   16.50022
      H1   -15.55109    3.39762   15.61101
       H   -17.07757   -1.34981   15.53472
       O   -17.94622   -1.64698   15.27775
      H1   -18.64996   -1.24966   15.79359
       H   -16.10679    2.06768   16.92478
       O   -15.99301    1.11549   17.22347
      H1   -15.22116    1.07526   17.82267
       H   -15.28986    0.20402   15.74104
       O   -15.39496   -0.62412   15.27209
      H1   -14.66559   -0.70970   14.56150
       H   -10.93263   -0.34735   16.85920
       O   -10.67560   -0.97697   16.14781
      H1   -11.34966   -1.64473   16.14707

