51
frame 10 | Written by MDAnalysis XYZWriter (release 2.4.3)
       H     9.04717   -8.63607  -14.32962
       O     8.42629   -9.03911  -13.64477
      H1     8.66010   -9.99051  -13.83718
       H     7.40056   -6.79891  -12.44548
       O     7.97161   -5.96639  -12.66650
      H1     8.50506   -5.87198  -11.88938
       H     8.74725   -4.07763  -15.64300
       O     8.32813   -3.22453  -15.79071
      H1     7.88758   -2.93352  -14.95954
       H     8.27411   -8.36440  -11.58984
       O     7.76511   -8.20832  -10.72522
      H1     8.35684   -7.56657  -10.33840
       H     3.56370   -4.54507   -9.35873
       O     2.80280   -4.72997   -9.86033
      H1     2.87519   -5.61464  -10.29161
       H     5.87231   -6.21981  -16.95481
       O     5.02482   -6.40820  -16.57000
      H1     5.08126   -6.12558  -15.63769
       H     3.69472   -9.52125  -16.97340
       O     3.55381   -8.64271  -17.34856
      H1     4.01355   -7.93338  -16.84105
       H     6.51150   -3.53724  -13.24562
       O     7.13983   -2.79085  -13.21369
      H1     6.53505   -2.19554  -13.60574
       H     2.95913   -7.72768  -11.00701
       O     2.73029   -6.98846  -11.57870
      H1     1.77859   -7.04530  -11.74230
       H     6.92317   -8.99238  -14.40144
       O     6.15262   -9.20065  -14.96557
      H1     5.45954   -9.49639  -14.45039
       H     2.55847   -7.69519  -14.63661
       O     3.23637   -8.10670  -13.99953
      H1     3.09773   -7.59862  -13.20086
       H     4.68289   -5.81459  -12.74247
       O     5.33349   -6.14306  -13.37527
      H1     4.87712   -6.91910  -13.75570
       H     4.47119   -4.03446  -18.70821
       O     5.19004   -4.01793  -18.04076
      H1     4.90861   -4.56466  -17.27603
       H    10.33871   -5.95981  -14.72725
       O     9.47380   -6.20634  -14.97207
      H1     9.03575   -6.35326  -14.15906
       H     2.89415   -4.35406  -14.94254
       O     2.29863   -4.77478  -15.59263
      H1     1.86534   -4.04183  -16.07866
       H     3.45274   -2.40722  -14.40605
       O     3.61649   -3.15214  -13.75978
      H1     3.67250   -2.65431  -12.95471
       H     5.62530   -6.44638   -8.62617
       O     5.45555   -6.67535   -9.59639
      H1     6.21477   -7.16918   -9.83979

