51
frame 10 | Written by MDAnalysis XYZWriter (release 2.4.3)
       H   -13.37044  -11.26583  -18.58230
       O   -14.12059  -11.87009  -18.80817
      H1   -14.97168  -11.43494  -18.47898
       H   -12.39424  -13.39692  -17.54786
       O   -12.59389  -13.01398  -16.70886
      H1   -11.84194  -12.44699  -16.43155
       H    -9.33457  -12.21316  -18.47525
       O   -10.10299  -12.08236  -19.00524
      H1    -9.71296  -11.80941  -19.87608
       H   -12.67569  -17.71908  -18.20350
       O   -13.57683  -18.05927  -18.03715
      H1   -14.06489  -18.19030  -18.85469
       H   -13.06764  -15.65330  -14.79534
       O   -12.45065  -14.92410  -14.76508
      H1   -12.44949  -14.40728  -15.53749
       H   -18.29085  -13.98238  -18.13404
       O   -17.76624  -14.55995  -17.56386
      H1   -18.39104  -15.02211  -17.02450
       H   -15.68187  -10.05350  -17.63122
       O   -16.32098  -10.81689  -17.65089
      H1   -16.56393  -10.97233  -16.76575
       H   -15.19281  -12.83252  -12.47728
       O   -15.75917  -12.59081  -13.29940
      H1   -15.55103  -13.23297  -14.03979
       H   -15.83776  -13.27888  -16.59748
       O   -15.21667  -13.51127  -15.88771
      H1   -14.36920  -13.02278  -16.02613
       H   -13.76836  -18.58907  -16.04428
       O   -14.40451  -18.77715  -15.29543
      H1   -13.86468  -19.34624  -14.71180
       H   -12.17094   -9.79402  -18.94958
       O   -11.89023  -10.23594  -18.11956
      H1   -11.12988  -10.76148  -18.34355
       H   -14.75429  -13.70016  -18.71135
       O   -15.18096  -14.52069  -19.05772
      H1   -15.95168  -14.74321  -18.58442
       H   -17.36599  -16.53658  -17.70902
       O   -16.91256  -17.37590  -17.47980
      H1   -15.98689  -17.14104  -17.19162
       H   -10.42002  -17.28109  -18.29330
       O   -10.97364  -16.51465  -18.01340
      H1   -10.50160  -16.16967  -17.20178
       H   -16.81854  -11.60444  -14.49212
       O   -16.98383  -10.78021  -14.92966
      H1   -17.94995  -10.72902  -15.02154
       H   -14.57609  -17.44282  -14.29747
       O   -14.65831  -16.70555  -13.66400
      H1   -15.59093  -16.53936  -13.63177
       H   -13.41117   -9.45704  -17.14893
       O   -14.27520   -9.08991  -17.20648
      H1   -14.65888   -9.08471  -16.35556

