51
frame 10 | Written by MDAnalysis XYZWriter (release 2.4.3)
       H     7.26903    9.06484   10.59184
       O     7.10562    8.11929   10.53292
      H1     6.86948    7.86647    9.61966
       H     5.75874    2.58837   11.43561
       O     5.33350    1.72064   11.63058
      H1     5.13738    1.84644   12.57433
       H     8.49798    2.34138   16.88914
       O     8.43202    2.00534   15.92819
      H1     7.50022    2.23210   15.66012
       H     5.83848    5.13515   17.93491
       O     5.50990    5.44229   17.02232
      H1     4.89983    4.75379   16.72375
       H     3.76700    6.41248   14.24836
       O     4.14178    7.20876   14.59437
      H1     3.30705    7.66340   14.77367
       H     9.23877    6.74910   16.32384
       O    10.12572    6.46325   16.12985
      H1     9.97457    5.93176   15.32850
       H     1.80231    5.39071   13.50414
       O     2.61804    4.97675   13.83912
      H1     2.25028    4.61122   14.66480
       H     6.85814    6.29019   16.14200
       O     7.55874    6.58545   15.57084
      H1     7.28113    6.20744   14.70744
       H     5.28768    7.39402   13.14678
       O     5.58930    6.96966   12.32526
      H1     6.27524    7.48169   11.82085
       H     6.37555    1.40499   14.30463
       O     6.09304    2.31253   14.41796
      H1     5.24683    2.33921   14.88331
       H     6.28872    4.17681   14.09856
       O     6.67232    4.87677   13.53678
      H1     6.09367    5.61450   13.23545
       H     2.99228    2.47385   15.91248
       O     3.86783    2.79795   16.15889
      H1     3.94258    2.83504   17.06940
       H     9.77512    5.07144   13.04251
       O     9.45435    4.78655   13.93051
      H1     8.51718    4.67010   13.80105
       H     4.23441    5.77032    9.68098
       O     4.70770    6.63121    9.51771
      H1     5.02625    6.93708   10.40460
       H     3.55187    2.20723   12.00494
       O     2.70836    2.34223   12.46592
      H1     2.70079    3.32164   12.61540
       H     6.86028    8.84289   14.73546
       O     6.48928    9.51135   14.14192
      H1     7.10351    9.49204   13.42654
       H     6.81606    4.81932   10.33265
       O     7.22170    4.05725   10.77593
      H1     7.07162    4.25967   11.71669

