51
frame 10 | Written by MDAnalysis XYZWriter (release 2.4.3)
       H    16.14902    6.23822   10.79614
       O    15.24754    6.61219   10.73687
      H1    14.83332    6.48163   11.59125
       H    15.44406    3.32535    8.27677
       O    15.05903    4.07346    7.74584
      H1    14.49298    4.52183    8.44141
       H    13.20196    2.68621   13.20731
       O    12.59698    3.40858   13.13375
      H1    11.94619    3.19555   12.44676
       H    13.57311    4.80023    5.34478
       O    13.34332    3.91710    5.60040
      H1    13.81693    3.89301    6.46208
       H    11.93607    3.21269    6.60169
       O    11.21453    3.30845    7.24665
      H1    10.60557    2.68684    6.90156
       H    11.98507    8.07616    7.24257
       O    12.59725    8.55736    6.69323
      H1    12.07487    9.31779    6.37250
       H    11.41703    5.85704    5.02521
       O    10.71224    5.41080    5.44675
      H1    11.03164    4.71611    6.02713
       H    16.63590    1.61360    9.40038
       O    16.04415    2.36214    9.54872
      H1    15.16039    1.96108    9.70901
       H    15.61190    8.11980    7.66648
       O    15.47174    7.18329    7.69762
      H1    15.49265    6.93187    8.62228
       H    13.25654    7.22955    4.11797
       O    13.38248    6.61321    4.84628
      H1    13.06479    7.06401    5.62996
       H    10.14343    6.79398   10.97175
       O     9.87875    7.57260   10.41836
      H1     8.95428    7.70847   10.60237
       H    10.55962    6.69028    8.72573
       O    11.23015    6.52689    8.05555
      H1    10.70265    6.20268    7.29210
       H    13.28169    6.58683   13.67624
       O    13.46274    6.24432   12.78802
      H1    13.37918    5.27028   12.81341
       H    11.01644    3.04456    9.76462
       O    11.19323    2.74320   10.67954
      H1    10.54869    2.07507   10.88948
       H    10.91958    4.75930   11.03051
       O    10.91568    5.44543   11.70226
      H1    11.78473    5.70972   11.95955
       H    12.64025    1.53955   10.34452
       O    13.58838    1.32670   10.33922
      H1    13.55958    0.37948   10.18794
       H    12.78140    6.02538    8.91089
       O    13.38126    5.42300    9.38503
      H1    14.03442    5.90870    9.90659

