54
frame 2 | Written by MDAnalysis XYZWriter (release 2.4.3)
       H     3.50619  -17.82043  -13.76975
       O     3.45117  -18.47937  -14.48559
      H1     3.98160  -19.25838  -14.38451
       H     4.44284  -17.81885   -9.99811
       O     5.37503  -18.13362  -10.06762
      H1     5.18559  -19.06879   -9.85938
       H     0.60309  -18.89787  -15.91714
       O     0.89187  -18.71168  -14.97529
      H1     1.88771  -18.62814  -14.94331
       H     4.94748  -16.21811  -15.52769
       O     5.21959  -15.68894  -14.74235
      H1     5.77921  -16.22447  -14.15130
       H     7.73549  -13.73320  -12.41753
       O     6.78148  -13.78330  -12.59554
      H1     6.64348  -14.72587  -12.47999
       H     3.15091  -16.73342  -16.91405
       O     4.05228  -17.12763  -16.74475
      H1     3.87502  -17.64526  -15.96696
       H     6.07851  -12.36165  -15.52642
       O     6.59878  -13.04941  -16.03195
      H1     6.37690  -13.87217  -15.53469
       H     0.03990  -15.31057  -13.61332
       O     0.42994  -15.56765  -14.48487
      H1     0.33663  -16.51705  -14.57523
       H     1.52710  -14.67988  -17.29592
       O     2.00501  -15.24897  -17.93341
      H1     2.92116  -14.93942  -18.07802
       H     2.49022  -18.87615  -11.37547
       O     2.42310  -17.92024  -11.14432
      H1     2.68212  -17.42964  -11.91058
       H     0.23070  -14.39492  -15.70022
       O     0.65000  -13.67388  -16.25028
      H1    -0.12275  -13.23084  -16.63352
       H     0.01061  -13.35355  -11.98963
       O    -0.00688  -13.18042  -12.93023
      H1    -0.92192  -12.72932  -13.12846
       H     3.36106  -15.65751  -13.79336
       O     2.71119  -16.09602  -13.23415
      H1     1.88206  -15.86368  -13.70079
       H     3.46171  -14.49538  -12.22826
       O     4.18325  -13.97006  -11.82139
      H1     5.00288  -14.05919  -12.34667
       H     1.86354  -13.49917  -10.37705
       O     1.00123  -13.93490  -10.42814
      H1     0.70006  -14.29720   -9.56330
       H     4.12080  -14.93559   -9.50875
       O     4.22531  -15.48675   -8.68684
      H1     5.17249  -15.45546   -8.50002
       H     2.95601  -12.94642  -13.46057
       O     3.10609  -12.63319  -14.32583
      H1     2.20595  -12.75189  -14.66624
       H     7.52824  -16.62357  -13.09643
       O     6.74589  -16.58693  -12.56617
      H1     6.81261  -17.41798  -12.07307

