54
frame 1 | Written by MDAnalysis XYZWriter (release 2.4.3)
       H    10.72957   -1.47406   -0.34249
       O    11.27240   -1.23389   -1.08486
      H1    11.74608   -2.02030   -1.35236
       H    12.96906   -4.69844   -2.31300
       O    12.58262   -3.81616   -2.08983
      H1    11.72646   -3.74913   -2.56790
       H    14.74672    3.20682   -3.62161
       O    15.23983    3.90107   -3.20668
      H1    15.51419    4.37896   -3.99708
       H    18.33153   -4.18845   -1.00059
       O    17.79665   -4.14420   -1.78474
      H1    17.32753   -3.30136   -1.68325
       H    15.79369   -0.65872   -2.63821
       O    16.45872   -1.00233   -2.01119
      H1    16.94814   -0.22043   -1.70412
       H    15.47852    1.36234    0.40154
       O    15.09397    1.52066   -0.50103
      H1    15.64479    2.21862   -0.90957
       H    14.78350   -3.92783    0.85752
       O    14.72524   -2.92158    0.90977
      H1    15.13346   -2.68761    0.08463
       H    13.39173    1.02341   -0.91035
       O    12.45904    1.14977   -1.22736
      H1    12.07207    0.28394   -1.09640
       H    19.16397    1.15792   -0.80593
       O    18.43838    1.15718   -1.40809
      H1    18.42789    2.04145   -1.82446
       H    12.49673    2.87970   -4.17135
       O    12.81013    1.93651   -3.93574
      H1    12.55859    1.59786   -3.04969
       H    16.76969   -2.93119   -4.42910
       O    17.52132   -2.42544   -4.22925
      H1    17.11965   -1.70249   -3.70241
       H    17.22605    3.44983   -3.18901
       O    18.12264    3.50327   -2.82459
      H1    18.74512    2.88572   -3.16721
       H    14.05725   -2.96309   -3.11057
       O    14.60834   -2.97198   -3.91208
      H1    13.95310   -3.01749   -4.61298
       H    19.00349   -1.92980   -2.83994
       O    19.61819   -1.34506   -2.41926
      H1    19.13301   -0.60391   -2.14218
       H    17.36411    0.88667   -6.16436
       O    18.16337    1.39733   -5.99886
      H1    18.90000    0.86182   -5.69265
       H    14.07961    0.52302   -4.04521
       O    14.77861   -0.15162   -4.10815
      H1    14.42766   -1.07274   -4.12065
       H    16.18135   -0.17678   -7.19692
       O    15.66842    0.30463   -6.58189
      H1    15.43148   -0.18148   -5.78009
       H    18.02225   -2.20396   -5.98018
       O    18.01661   -2.49530   -6.95465
      H1    17.68914   -3.42836   -6.78821

