54
frame 2 | Written by MDAnalysis XYZWriter (release 2.4.3)
       H   -13.07575  -17.70518  -15.44347
       O   -12.21071  -17.57279  -15.87784
      H1   -12.13853  -18.42938  -16.29364
       H   -11.75748  -13.04747  -16.20069
       O   -12.06612  -13.64771  -15.47179
      H1   -11.15099  -13.90566  -15.09951
       H    -8.25109  -14.95787  -15.36178
       O    -8.85520  -14.77228  -14.61741
      H1    -8.78172  -13.81707  -14.44663
       H   -11.36910  -10.97052  -17.96388
       O   -11.99471  -11.52893  -18.34744
      H1   -12.06022  -11.19633  -19.23972
       H   -11.34851  -14.50481  -11.69749
       O   -11.22343  -13.79099  -11.04796
      H1   -10.52344  -14.08888  -10.45083
       H   -11.90647  -14.76255  -19.30066
       O   -11.58869  -13.93796  -19.70540
      H1   -11.57620  -13.26836  -19.04557
       H    -9.69911   -9.84590  -12.59795
       O   -10.40251  -10.54965  -12.75523
      H1    -9.99062  -11.23145  -13.30175
       H   -14.42429  -15.27350  -17.63512
       O   -14.62705  -15.82599  -18.40919
      H1   -13.79370  -16.32896  -18.61749
       H   -11.94754  -16.29389  -13.40142
       O   -11.06797  -16.03566  -13.08461
      H1   -10.47429  -15.70228  -13.77560
       H    -7.73093  -12.09160  -14.00291
       O    -8.63866  -12.01440  -14.34525
      H1    -8.56498  -11.66340  -15.24688
       H   -13.12180  -11.73211  -13.46042
       O   -13.92335  -11.81452  -12.92397
      H1   -13.75336  -11.17887  -12.24951
       H   -11.17039  -16.67014  -18.78148
       O   -12.11371  -16.54751  -18.61507
      H1   -12.18518  -16.60767  -17.62606
       H   -13.81540  -14.40414  -15.62377
       O   -14.69250  -14.91418  -15.58624
      H1   -15.40322  -14.25547  -15.83740
       H   -14.81370  -13.48901  -13.04916
       O   -15.10619  -14.42895  -12.96666
      H1   -14.97890  -14.72176  -13.90407
       H    -8.67423  -17.48323  -17.30256
       O    -8.39500  -16.54424  -17.24742
      H1    -7.46121  -16.59192  -17.37741
       H   -10.11685  -17.79745  -13.14291
       O    -9.56781  -18.58566  -13.03904
      H1    -8.66022  -18.24055  -13.14415
       H   -14.07290  -17.19655  -13.47727
       O   -13.61879  -16.68415  -12.78597
      H1   -14.06803  -15.83586  -12.79770
       H    -7.63411  -11.73678  -17.61572
       O    -8.37161  -11.47140  -17.06964
      H1    -8.33314  -10.48302  -17.21287

