54
frame 1 | Written by MDAnalysis XYZWriter (release 2.4.3)
       H     5.56383    3.50708   10.56286
       O     4.69198    3.36585   10.99112
      H1     4.69938    2.50897   11.50292
       H     2.81476    3.54855    8.42766
       O     3.75078    3.67551    8.29300
      H1     4.13465    3.53488    9.19941
       H     3.72409    6.78829   16.65554
       O     4.50595    7.35951   16.70661
      H1     4.22008    8.30643   16.72086
       H     3.55098    2.50350   14.18371
       O     4.46260    2.08819   14.18991
      H1     4.71073    2.17108   15.12537
       H     0.35893    6.86960   10.20091
       O    -0.31440    6.78980   10.86347
      H1    -0.02292    7.49150   11.48782
       H     5.62765    7.02075   15.41622
       O     6.05811    6.51764   14.67757
      H1     5.45646    5.98629   14.16152
       H     8.30104    4.47676   15.38271
       O     7.39341    4.17597   15.58944
      H1     6.88193    4.91912   15.29420
       H     1.45226    9.91432   13.18155
       O     2.13906   10.58997   13.15259
      H1     1.59450   11.40118   13.31011
       H     1.41790    5.51182   13.21730
       O     1.70943    6.39483   13.53472
      H1     1.93247    6.17665   14.43259
       H     1.70320    6.09798   16.99715
       O     2.21932    5.68414   16.30344
      H1     2.17577    4.72610   16.50971
       H     1.18188    2.66219   16.39962
       O     2.16386    2.80395   16.18229
      H1     2.75632    2.85267   16.97912
       H     4.02488    4.71880   12.25729
       O     4.14905    5.38806   12.95169
      H1     3.28859    5.80974   13.03930
       H     4.76741    6.28209   11.41600
       O     4.86133    6.93788   10.68824
      H1     5.74229    7.31744   10.81992
       H     3.73701    5.47825    8.20798
       O     3.70586    6.44250    8.24478
      H1     4.20983    6.56991    9.08528
       H     0.56087    7.93551   13.66119
       O     0.09811    8.77775   13.42013
      H1    -0.31725    8.91253   14.29994
       H     4.02498   10.16170   13.57619
       O     4.84769   10.21799   14.01554
      H1     4.91402   11.15361   14.11849
       H    -0.57678    3.62830   11.92864
       O     0.18984    3.72308   12.52675
      H1     0.75711    2.91242   12.37041
       H     6.75626    7.99227   13.84234
       O     7.19438    8.83821   13.70054
      H1     6.45713    9.45298   13.62385

