54
frame 0 | Written by MDAnalysis XYZWriter (release 2.4.3)
       H   -17.78012  -14.87810   -9.72648
       O   -18.44531  -15.09949  -10.35276
      H1   -18.17179  -14.80809  -11.26440
       H   -18.55189  -11.85651  -10.67881
       O   -17.60416  -11.67769  -10.87829
      H1   -17.39639  -11.28168  -10.01199
       H   -13.24358  -17.49583   -9.66773
       O   -13.87211  -17.19930   -9.02188
      H1   -13.63814  -16.29078   -8.83720
       H   -16.86058  -15.24251   -7.08080
       O   -16.74241  -15.21668   -8.02386
      H1   -16.04836  -14.56871   -8.22039
       H   -16.53992  -11.97378  -16.54299
       O   -16.67010  -12.95616  -16.36861
      H1   -16.91560  -12.88021  -15.42328
       H   -16.40323  -15.14602   -4.77302
       O   -16.54279  -15.95881   -5.37503
      H1   -17.42029  -16.29010   -5.20106
       H   -15.93709  -17.82761  -14.78317
       O   -15.43423  -17.60997  -13.98368
      H1   -15.51872  -18.31603  -13.27817
       H   -16.67853  -18.23635   -8.04713
       O   -17.51201  -17.85238   -7.78979
      H1   -17.41916  -16.93532   -8.02985
       H   -17.21015  -14.66004  -13.21183
       O   -18.17751  -14.74838  -13.04961
      H1   -18.37374  -15.58806  -13.47784
       H   -15.41241  -17.36774  -10.06421
       O   -16.06343  -17.54548  -10.79190
      H1   -16.84453  -16.98137  -10.52706
       H   -15.01225  -12.73579  -13.25090
       O   -15.39180  -13.61549  -13.37361
      H1   -15.02891  -13.94436  -14.24585
       H   -17.37699  -10.80817  -14.30575
       O   -17.71014  -11.72947  -14.07901
      H1   -17.43304  -11.92009  -13.15127
       H   -18.79048  -19.81235  -10.72049
       O   -18.47581  -19.95917   -9.83111
      H1   -18.42433  -19.06723   -9.53943
       H   -15.56738  -12.60132   -8.96928
       O   -15.80412  -11.85297   -8.37388
      H1   -16.00642  -12.29818   -7.53234
       H   -18.81814  -17.50217  -14.99901
       O   -18.63728  -16.62121  -15.21024
      H1   -19.39150  -16.34485  -15.73193
       H   -14.20809  -16.56028  -13.10928
       O   -13.41519  -16.07616  -12.92164
      H1   -13.77325  -15.22497  -12.85217
       H   -14.17079  -14.36955   -9.47023
       O   -14.95958  -13.95125   -9.84562
      H1   -14.66193  -13.50767  -10.62841
       H   -18.25669  -11.58937   -5.51724
       O   -18.85281  -10.88556   -5.75189
      H1   -19.45550  -11.38062   -6.33533

