54
frame 1 | Written by MDAnalysis XYZWriter (release 2.4.3)
       H    11.60686  -14.86581   -1.93483
       O    11.86509  -15.13185   -2.79053
      H1    12.45054  -15.91325   -2.76219
       H     7.41774  -10.12732   -2.11989
       O     8.34356  -10.35023   -1.78574
      H1     8.73644  -10.84801   -2.48895
       H    13.86830  -12.05071   -4.15117
       O    13.75606  -12.99866   -4.00968
      H1    13.12688  -13.12627   -3.25621
       H     7.88922  -18.04626   -5.00804
       O     7.40671  -17.26034   -5.35771
      H1     7.96764  -16.56873   -5.65731
       H    12.13266  -13.21676    0.39404
       O    11.44279  -13.66877   -0.17864
      H1    11.30520  -14.55270    0.17815
       H    11.71161  -12.80069   -8.95290
       O    11.12010  -13.28549   -8.34985
      H1    11.12694  -14.18565   -8.71547
       H    11.34393  -10.89259   -6.76008
       O    12.26032  -11.25785   -6.72396
      H1    12.76315  -10.74356   -7.38795
       H    11.76931   -8.43066   -3.08225
       O    11.04743   -8.95565   -3.49446
      H1    11.18168   -9.80206   -3.07643
       H    11.28842  -18.65995   -5.31845
       O    11.43110  -17.98662   -4.60929
      H1    11.80168  -17.16989   -4.99873
       H     8.70062  -11.05366   -7.41684
       O     9.44571  -11.36571   -6.98769
      H1     9.89994  -12.02328   -7.53828
       H    11.64277  -15.14727   -6.03082
       O    12.09089  -15.95955   -6.24705
      H1    11.70047  -16.20563   -7.10864
       H    15.92678  -14.75683   -2.98190
       O    16.11319  -13.82598   -2.77117
      H1    15.30899  -13.31084   -2.95910
       H    13.06493  -10.36416   -5.27665
       O    13.69658  -10.08807   -4.57568
      H1    13.21817   -9.60593   -3.87189
       H    13.51807  -14.77015   -6.23596
       O    14.42817  -14.46470   -6.19821
      H1    14.43660  -13.81161   -5.45813
       H    11.41319  -13.78082   -4.65579
       O    10.70437  -13.59435   -5.26397
      H1    11.06944  -13.13748   -6.01947
       H     7.94568  -14.07581   -6.59951
       O     8.00021  -14.16873   -5.67730
      H1     8.92770  -14.08798   -5.55626
       H    10.97549  -12.62286   -1.83887
       O    11.21589  -11.97179   -2.53970
      H1    10.48655  -12.29284   -3.07088
       H     8.80840  -11.44985   -5.15272
       O     8.27518  -11.68406   -4.39568
      H1     7.93234  -12.56594   -4.65788

