54
frame 1 | Written by MDAnalysis XYZWriter (release 2.4.3)
       H    16.78194    4.28580    5.91457
       O    17.35202    3.78419    6.46739
      H1    16.81073    3.69391    7.27138
       H    16.13343    6.25006    4.25952
       O    16.68566    5.46489    4.02135
      H1    17.62099    5.82940    4.24901
       H    15.13326    3.05972    8.49866
       O    16.08317    3.18883    8.73087
      H1    16.08059    4.09576    9.11422
       H    18.50499    0.17437    2.60344
       O    18.77482    0.85353    1.96192
      H1    19.43314    1.39420    2.40258
       H    13.31729    1.50094    5.81464
       O    13.72064    1.79290    5.00396
      H1    13.56911    2.71749    5.09590
       H    14.86745   -1.26616    9.59808
       O    14.87744   -1.82974   10.39655
      H1    15.56875   -2.50901   10.16746
       H    15.64416    0.94575    2.24855
       O    16.10281    1.61223    1.79599
      H1    17.05178    1.33700    1.89303
       H    17.68075   -0.04322    4.90776
       O    18.15845   -0.87015    4.67986
      H1    17.76826   -1.20021    3.89920
       H    18.93930    2.25959    8.46484
       O    19.20075    3.18322    8.38596
      H1    18.65090    3.43014    7.62351
       H    16.92611   -2.28900    5.56162
       O    16.92661   -3.26011    5.79336
      H1    17.69493   -3.35324    6.39234
       H    15.78561   -0.49668    7.11335
       O    15.18962   -0.75586    7.77402
      H1    14.90471   -1.62623    7.47498
       H    18.60646    0.21013    7.86048
       O    17.98186    0.77971    8.38168
      H1    17.20366    0.68207    7.83644
       H    17.77831   -0.15243    9.89657
       O    17.77982   -0.50332   10.78060
      H1    18.59811   -0.14696   11.21046
       H    19.40947   -1.62797    7.59735
       O    19.57778   -0.85493    7.06962
      H1    19.14973   -1.06044    6.26118
       H    15.42876   -1.30576    2.28862
       O    15.03598   -0.60282    2.85569
      H1    14.10751   -0.82676    2.85364
       H    17.91213   -1.13473    1.56826
       O    17.60709   -1.78962    2.22453
      H1    18.36556   -2.33108    2.47917
       H    16.74746    1.96893    5.78998
       O    16.51207    1.02085    5.77153
      H1    15.69055    1.04304    5.27910
       H    12.55869    2.74679    7.91270
       O    13.39606    2.28948    7.97045
      H1    13.20346    1.58096    8.61650

