54
frame 1 | Written by MDAnalysis XYZWriter (release 2.4.3)
       H    -7.62319   -1.66047  -16.76195
       O    -8.43438   -2.07749  -17.20397
      H1    -9.21102   -1.50116  -17.07663
       H   -12.33344    1.32767  -15.06636
       O   -13.31001    1.52316  -15.30746
      H1   -13.37450    2.35233  -14.81784
       H   -15.21821   -0.30651  -17.37776
       O   -14.30341   -0.31612  -17.17509
      H1   -14.22806    0.40853  -16.56761
       H   -11.07873    5.82194  -19.68914
       O   -11.56629    5.00046  -19.77527
      H1   -11.76256    4.79371  -18.83503
       H    -8.09992   -2.04536  -18.97765
       O    -7.82002   -2.01162  -19.90424
      H1    -7.62082   -2.91702  -20.11391
       H    -5.66389    2.15351  -18.77326
       O    -4.78380    2.29004  -18.46351
      H1    -4.81770    2.03177  -17.54025
       H   -12.55404    1.05137  -19.86103
       O   -13.32607    0.48657  -19.98413
      H1   -13.48860    0.17815  -19.07504
       H   -15.14037    2.94548  -19.66092
       O   -15.64055    2.18812  -19.39066
      H1   -15.26725    1.48437  -19.88989
       H   -13.88761   -2.52301  -17.83776
       O   -13.69141   -3.05863  -18.56527
      H1   -14.26551   -2.98536  -19.27207
       H    -9.71955    3.82568  -16.38817
       O    -9.43552    2.98773  -15.99107
      H1    -9.41145    3.16891  -15.02179
       H   -16.56680    0.94164  -18.40473
       O   -16.82088    0.08787  -17.99185
      H1   -16.89251   -0.59324  -18.70472
       H   -10.74189    1.13373  -19.60943
       O   -11.16643    1.85599  -19.11635
      H1   -10.47732    2.53125  -19.00107
       H    -8.54629    6.58075  -18.20609
       O    -8.68640    5.65720  -18.25871
      H1    -8.72758    5.53489  -19.19613
       H    -6.37745    4.06749  -16.07496
       O    -6.60888    3.15482  -15.85495
      H1    -7.57931    2.98864  -16.11462
       H   -11.50399   -0.90874  -17.69868
       O   -11.14657   -1.26616  -16.91649
      H1   -11.92811   -1.71310  -16.50070
       H   -13.32579    3.82365  -17.47846
       O   -12.38489    3.80303  -17.45965
      H1   -12.10388    2.95790  -17.84074
       H   -10.78407   -0.25851  -15.50515
       O   -10.77778    0.34859  -14.76665
      H1   -10.19262    1.01949  -15.10604
       H   -11.78521    5.90112  -15.98166
       O   -12.02848    6.27324  -15.13887
      H1   -12.56421    5.55388  -14.80289

