54
frame 2 | Written by MDAnalysis XYZWriter (release 2.4.3)
       H   -15.22506   12.14813    1.67056
       O   -15.98535   12.50688    2.22353
      H1   -16.11318   13.39791    1.91837
       H   -18.54499   12.61954    5.14461
       O   -18.52933   12.24167    6.02631
      H1   -18.87041   12.94763    6.59427
       H   -17.18896   17.23071    4.53702
       O   -17.92700   17.40413    5.16388
      H1   -17.52816   17.76033    5.96372
       H   -16.40421    9.23503    8.02482
       O   -16.85534    9.27948    7.12063
      H1   -16.76873   10.23892    6.94197
       H   -17.76126   18.61984    8.14498
       O   -17.21102   17.91735    7.63509
      H1   -17.37800   17.08495    8.13753
       H   -19.62321    7.20309    5.33564
       O   -19.10874    6.41340    4.95250
      H1   -18.68381    6.95101    4.19659
       H   -17.80217   13.17246    3.15929
       O   -18.72581   13.36474    3.37732
      H1   -19.05769   14.03482    2.81398
       H   -15.53372   15.25015    0.59475
       O   -16.35834   15.09616    1.07204
      H1   -17.01235   15.16831    0.40596
       H   -13.99259   14.45513    7.04758
       O   -14.33116   15.35816    7.13440
      H1   -15.14215   15.15452    7.63142
       H   -18.31833    7.61387    2.10409
       O   -17.85099    7.77180    2.93558
      H1   -16.95855    7.39212    2.84793
       H   -17.47135   17.75928    2.30513
       O   -16.71689   17.29844    2.72417
      H1   -16.64479   16.44883    2.20963
       H   -17.58198   11.04956    2.39320
       O   -18.39749   10.56820    2.53386
      H1   -18.07763    9.65569    2.68920
       H   -17.47260    7.44712    6.88782
       O   -17.81820    6.66879    7.27959
      H1   -18.35511    6.30255    6.55585
       H   -15.31179   12.27344    7.06551
       O   -16.20832   12.42669    7.46789
      H1   -16.82300   12.45526    6.68081
       H   -17.16130   14.57142    8.51566
       O   -16.78237   15.43539    8.79299
      H1   -16.00733   15.25526    9.34405
       H   -12.56603   12.25014    6.08932
       O   -13.33230   11.90113    6.51416
      H1   -12.90386   11.38692    7.17976
       H   -18.76293   15.99492   -0.90466
       O   -19.15064   15.14967   -0.64288
      H1   -19.62091   15.39337    0.13611
       H   -16.29599   11.71210   10.66165
       O   -15.93385   11.39798    9.86294
      H1   -16.37200   11.77158    9.06930

