54
frame 0 | Written by MDAnalysis XYZWriter (release 2.4.3)
       H    -8.05963    8.89834  -17.19049
       O    -9.02948    8.76231  -17.35783
      H1    -9.43062    8.69198  -16.52775
       H    -7.41606    6.27551  -17.85619
       O    -6.70459    6.19357  -17.19295
      H1    -5.84967    6.16890  -17.73150
       H   -12.49464   10.19318  -13.86066
       O   -12.15017   10.65823  -14.61596
      H1   -12.68145   11.41420  -14.74164
       H   -17.67521    6.90389  -16.64582
       O   -17.41527    5.95165  -16.69859
      H1   -17.32692    5.82234  -17.63940
       H   -13.02839    4.93046  -18.20327
       O   -13.45796    4.36157  -18.84645
      H1   -13.28815    3.44524  -18.57499
       H    -9.39707   10.57766  -16.16492
       O    -9.66432   11.21620  -15.49185
      H1   -10.29774   10.76566  -14.96445
       H   -13.06149    7.20137  -17.48505
       O   -12.20493    6.86484  -17.89186
      H1   -12.04346    7.32583  -18.71508
       H   -14.47508   10.48916  -19.10599
       O   -15.37861   10.25329  -19.49206
      H1   -15.35119    9.27141  -19.71499
       H   -11.76247    9.97182  -16.31246
       O   -11.63173   10.03070  -17.32152
      H1   -11.51517    9.12827  -17.67240
       H   -10.05314    3.90644  -15.75154
       O    -9.66299    3.22490  -15.13463
      H1    -9.12632    3.68274  -14.42096
       H   -12.24011   10.85837  -18.65270
       O   -12.84511   11.39411  -19.17545
      H1   -12.26733   12.06980  -19.57003
       H    -8.96826    6.99476  -17.95981
       O    -9.15349    6.25096  -18.54058
      H1    -9.76589    5.69972  -18.04742
       H   -13.79974    4.59202  -14.31132
       O   -13.01250    4.08610  -14.49516
      H1   -12.49697    4.06294  -13.65988
       H    -9.52729    8.08879  -14.42331
       O   -10.38898    7.99777  -14.83577
      H1   -10.24702    7.09488  -15.22338
       H   -12.14745    2.02270  -16.95401
       O   -11.83617    2.35892  -17.78526
      H1   -10.88922    2.10764  -17.71828
       H   -13.53612   10.35743  -17.00797
       O   -14.27775   10.60723  -16.43119
      H1   -14.02194   11.53033  -16.38928
       H   -11.51763    6.07112  -16.59064
       O   -10.97268    5.54081  -15.95901
      H1   -11.68828    5.11557  -15.40776
       H   -15.44969    6.97497  -16.47624
       O   -14.48174    7.15839  -16.46696
      H1   -14.36761    7.76925  -15.73993

