54
frame 11 | Written by MDAnalysis XYZWriter (release 2.4.3)
       H     0.67628   14.64976   16.59218
       O     0.64189   15.35281   17.19914
      H1     1.45179   15.14082   17.68991
       H    -0.78314   11.22466   18.33946
       O    -0.56160   12.13715   18.13376
      H1    -0.48836   12.22263   17.17402
       H    -2.74538   14.40535   17.45335
       O    -3.15965   13.79677   16.86812
      H1    -3.31019   13.03134   17.48817
       H    -2.17040   15.33861   19.13294
       O    -1.84779   15.76761   18.30840
      H1    -1.03342   15.37047   17.94535
       H     3.51035   14.78480   18.34514
       O     3.04741   15.54636   18.79070
      H1     3.24578   15.35719   19.69242
       H    -5.62054   19.68814   16.22683
       O    -5.35394   19.16378   15.48614
      H1    -4.44420   18.85707   15.63900
       H    -2.12943   14.55089   15.53380
       O    -1.54582   14.95964   14.80744
      H1    -1.87233   15.88336   14.63941
       H     0.22745   15.60542   14.25965
       O     1.03371   15.93215   13.86129
      H1     0.96752   15.45548   13.00095
       H     0.98758   18.12346   15.13455
       O     1.24786   17.81042   16.03441
      H1     0.94249   16.89500   16.15868
       H    -0.52697   18.60135   18.39948
       O    -1.43972   18.52870   18.43902
      H1    -1.68230   17.58472   18.39530
       H    -3.77931   11.05389   14.62067
       O    -2.93312   10.69648   14.98661
      H1    -2.43508   11.51693   15.11515
       H    -2.71871   11.14121   18.25409
       O    -3.52368   11.31146   17.81065
      H1    -3.30573   11.10465   16.91185
       H    -1.98186   18.78289   16.67750
       O    -2.47508   18.98116   15.87144
      H1    -2.23281   18.29166   15.22656
       H    -5.07445   17.00998   19.27583
       O    -5.63809   17.25845   18.54447
      H1    -5.26719   18.13653   18.31999
       H     1.60960   18.41802   19.13882
       O     1.23382   18.93614   18.39500
      H1     1.21129   18.29322   17.64064
       H    -0.03073   11.78923   15.13484
       O    -0.68793   12.40781   15.50128
      H1    -0.86438   13.10534   14.81916
       H    -5.93634   12.06430   17.56001
       O    -6.62139   12.11734   16.86827
      H1    -7.13936   12.91177   17.08506
       H    -5.98190   14.30377   18.61972
       O    -5.42906   13.72759   19.13876
      H1    -6.14839   13.13977   19.50373

