54
frame 1 | Written by MDAnalysis XYZWriter (release 2.4.3)
       H    -1.35804    9.81857    8.75902
       O    -2.32581    9.94014    8.93918
      H1    -2.71785    9.03075    8.83605
       H    -4.86148    4.71185   10.22715
       O    -4.81075    4.62749   11.22162
      H1    -5.24731    3.74243   11.36365
       H    -7.56658    3.85326    6.96732
       O    -7.02916    4.20625    6.25310
      H1    -7.52627    3.89285    5.53674
       H    -5.92617   10.12674   10.66301
       O    -5.97998   10.95096   11.14334
      H1    -5.87698   10.70716   12.07354
       H    -9.25695    7.65261   10.53024
       O    -8.49361    7.19636   10.18661
      H1    -7.79666    7.78442   10.20491
       H    -5.20408    8.38791    5.60433
       O    -5.72028    8.59013    4.76318
      H1    -5.00655    8.78961    4.04166
       H    -3.33544    8.24557   12.30433
       O    -3.63005    7.69590   11.51985
      H1    -4.02927    7.00465   12.00903
       H    -1.51786    5.67759    3.40976
       O    -2.42827    5.77356    3.20591
      H1    -2.86517    5.31274    4.00577
       H    -1.51233    7.09682    9.61340
       O    -1.96616    7.07990    8.74627
      H1    -1.37710    6.67287    8.12050
       H    -7.61956    5.66094    7.12911
       O    -7.88125    6.48918    7.48526
      H1    -8.02913    6.44751    8.43615
       H    -4.16772    4.80540    7.69160
       O    -4.16221    5.33035    8.49892
      H1    -3.23762    5.44648    8.72327
       H    -5.64356    8.17945    8.95491
       O    -5.83884    8.38673    9.88562
      H1    -4.99686    8.01286   10.26217
       H    -7.33248    8.21852    4.23621
       O    -8.17754    8.24974    3.77175
      H1    -8.72635    7.49510    4.09099
       H    -2.74576   10.69530    7.40324
       O    -2.58658   11.32868    6.64060
      H1    -3.41464   11.75923    6.39496
       H    -4.46839    4.28444    5.13977
       O    -3.55532    4.05045    5.16494
      H1    -3.41667    3.20526    4.68733
       H    -7.29630   10.35714    5.10535
       O    -7.31210   10.66610    6.02250
      H1    -8.26661   10.63041    6.14865
       H    -4.50435    6.32887    2.94927
       O    -5.29176    6.15220    3.53160
      H1    -5.36096    6.92454    4.14568
       H    -6.27224    7.50706    7.29849
       O    -5.41290    7.92771    7.34899
      H1    -4.91875    7.10255    7.42193

