54
frame 2 | Written by MDAnalysis XYZWriter (release 2.4.3)
       H    17.23890  -11.64064   -5.45374
       O    16.50252  -11.30132   -5.97360
      H1    16.41726  -10.31872   -5.93775
       H    16.67676  -13.98737    0.29032
       O    16.63737  -13.10824   -0.11308
      H1    16.29412  -13.21678   -0.99367
       H    17.45477  -11.60079   -0.25848
       O    18.03453  -10.87509   -0.51321
      H1    18.54749  -10.63175    0.27767
       H    13.02162  -10.28447    0.13560
       O    12.16846   -9.89436   -0.18369
      H1    11.88948  -10.60064   -0.80724
       H    16.85499   -9.73970    0.24415
       O    16.64401   -8.86531    0.57742
      H1    15.93792   -8.88758    1.28146
       H    14.10395  -11.79136    1.90536
       O    14.26963  -11.66084    0.95246
      H1    15.06171  -12.16378    0.83425
       H    17.75068  -10.85109    2.91262
       O    17.28552  -11.02806    3.74870
      H1    16.50854  -10.45253    3.77839
       H    14.80025  -11.53190   -5.01390
       O    14.12999  -11.86559   -4.40235
      H1    13.87665  -11.05502   -3.93733
       H    13.72670   -8.67089    2.96537
       O    14.65625   -8.72162    2.87207
      H1    15.04519   -8.19819    3.58340
       H    13.19663   -9.46576   -2.22086
       O    13.92975   -9.27643   -2.77472
      H1    14.61334   -8.87878   -2.29403
       H    15.81819  -14.19480   -2.73917
       O    16.02628  -13.28654   -3.05334
      H1    15.21644  -12.91269   -3.45185
       H    19.59032  -10.48919    6.01508
       O    19.24454   -9.80643    5.35951
      H1    18.52741  -10.27323    4.84956
       H    18.23650   -8.61828    1.87999
       O    18.90472   -8.48157    2.53169
      H1    19.55111   -7.95201    2.02538
       H    18.33239   -8.85047   -3.91157
       O    18.26711   -8.01970   -4.42479
      H1    18.49661   -7.32905   -3.75515
       H    17.28110  -15.76131    1.52909
       O    16.36712  -15.90694    1.40490
      H1    15.89966  -15.45686    2.14603
       H    18.86245  -13.22955   -4.89588
       O    18.31580  -12.63884   -4.39639
      H1    17.61770  -13.03614   -3.78226
       H    15.73131   -6.57027   -1.21466
       O    15.59561   -7.46877   -1.49366
      H1    16.17213   -7.94675   -0.96171
       H    19.08168  -10.95499   -3.32314
       O    18.99695  -10.09419   -2.90720
      H1    18.62307  -10.29793   -1.95626

