54
frame 1 | Written by MDAnalysis XYZWriter (release 2.4.3)
       H   -15.37153   11.83840    1.38807
       O   -16.26744   12.03292    1.59470
      H1   -16.50417   12.67837    0.91687
       H   -10.83691   10.47465    0.97094
       O   -11.33923   10.51172    1.79169
      H1   -12.15209   10.84554    1.43196
       H   -11.64795    9.32594   -2.57315
       O   -10.66886    9.30726   -2.62367
      H1   -10.36084    8.66637   -1.94520
       H   -13.76018    9.30493   -1.57160
       O   -13.48151    9.26201   -2.50099
      H1   -13.92244    9.97526   -3.01481
       H    -9.24756   11.22732   -0.46187
       O   -10.14499   11.27078   -0.77868
      H1   -10.18071   10.69588   -1.55892
       H    -8.27716   13.50050    2.30875
       O    -7.42588   13.38732    1.88194
      H1    -7.69088   13.36852    1.00682
       H   -13.52522   12.17965    0.05161
       O   -13.64301   11.65494    0.84289
      H1   -13.90163   10.76961    0.56900
       H   -12.43023    7.51814    4.21126
       O   -12.24973    6.66011    4.60510
      H1   -13.01922    6.29052    4.94455
       H   -10.42174   12.98815   -0.95854
       O   -10.45765   13.94870   -1.07494
      H1   -10.02568   14.12312   -1.93689
       H   -13.51711    8.39128    0.44945
       O   -14.15436    9.06004    0.12357
      H1   -15.03193    8.67915    0.07721
       H   -12.41462    8.11897    2.24903
       O   -12.51262    7.43341    1.61684
      H1   -11.70745    7.45460    0.99540
       H   -10.12309   13.92641    3.44190
       O    -9.36277   14.57800    3.40209
      H1    -9.62979   15.05520    2.59621
       H   -11.29569   11.98223    3.24168
       O   -11.29449   12.51813    4.04397
      H1   -10.78697   11.96553    4.71302
       H   -12.21612   13.89430   -1.06848
       O   -13.13433   13.59558   -1.15669
      H1   -13.56446   14.40357   -0.84815
       H   -14.11438    6.73635    2.37954
       O   -14.97653    6.33769    2.27937
      H1   -14.87815    6.06970    1.32642
       H   -12.83821    9.71658    4.53945
       O   -12.59497    9.17452    3.76379
      H1   -12.14662    9.77824    3.14520
       H   -13.00913   11.94473    5.54919
       O   -13.45980   11.07914    5.74074
      H1   -13.41245   11.07726    6.72858
       H   -10.49545    6.60499   -0.60639
       O   -10.37258    7.58342   -0.45963
      H1    -9.68986    7.52950    0.25394

