54
frame 2 | Written by MDAnalysis XYZWriter (release 2.4.3)
       H    -8.13690   -8.05894  -17.15499
       O    -8.27744   -8.87842  -17.65872
      H1    -7.97509   -8.59947  -18.52181
       H    -9.16062   -4.38907  -15.94462
       O    -9.87437   -4.95858  -16.26693
      H1   -10.26015   -4.62156  -17.07049
       H    -8.19869   -0.90029  -16.55574
       O    -8.90836   -1.52716  -16.82667
      H1    -9.75003   -1.12403  -16.65515
       H   -11.88001   -3.89264  -18.88671
       O   -11.18173   -4.56684  -18.82653
      H1   -10.78045   -4.65001  -19.67758
       H   -12.03567   -5.17164  -14.00501
       O   -11.83919   -4.31410  -14.42931
      H1   -11.14855   -4.50023  -15.11874
       H    -8.80696   -2.11307  -18.80867
       O    -8.62449   -1.95083  -19.71747
      H1    -8.51604   -2.83268  -20.05193
       H   -11.53195   -8.39595  -18.09499
       O   -10.70613   -8.19480  -18.56169
      H1    -9.96719   -8.50657  -17.97204
       H   -10.32128   -2.36285  -12.57883
       O    -9.90946   -3.14297  -12.98375
      H1   -10.63233   -3.59225  -13.45249
       H   -13.39340   -2.89248  -17.75957
       O   -13.23352   -2.70536  -18.75001
      H1   -13.82133   -3.13284  -19.39123
       H    -8.17930   -2.72906  -15.37940
       O    -7.87787   -3.49311  -14.85609
      H1    -8.40486   -3.36454  -14.04029
       H    -7.26789   -6.19800  -17.52821
       O    -7.67834   -6.50900  -16.67063
      H1    -8.43962   -5.88089  -16.59244
       H   -13.96332   -4.52604  -16.39753
       O   -13.79457   -5.38556  -15.96753
      H1   -13.16130   -5.23740  -15.24591
       H   -12.90169   -7.54919  -14.15831
       O   -12.14759   -7.15992  -13.75278
      H1   -11.51675   -7.68434  -14.21212
       H   -14.27734   -1.99872  -15.66518
       O   -13.37395   -2.26474  -15.90908
      H1   -12.89502   -2.37419  -15.10308
       H   -11.46654   -0.59145  -17.50917
       O   -11.31014   -0.62033  -16.54422
      H1   -12.00051   -1.20662  -16.12388
       H    -5.98046   -5.05499  -18.23246
       O    -6.51725   -5.54191  -18.92836
      H1    -5.86407   -6.07598  -19.40819
       H    -7.17775   -5.70042  -13.02980
       O    -7.18486   -6.46069  -13.67814
      H1    -7.54193   -6.16422  -14.51638
       H   -10.75591   -9.32766  -14.86310
       O   -10.11171   -8.61265  -15.08645
      H1    -9.52443   -8.64694  -14.30446

