54
frame 2 | Written by MDAnalysis XYZWriter (release 2.4.3)
       H     9.39968   15.69055    2.18161
       O     8.55900   16.11765    2.51880
      H1     7.91701   15.38233    2.56953
       H     8.16394   13.05594    7.92983
       O     7.40675   13.62699    7.81390
      H1     6.82611   13.21964    7.17753
       H    11.66823   18.43066    0.99348
       O    12.37979   18.59330    1.64411
      H1    11.99877   19.05506    2.41214
       H    13.34130   17.30500    2.90729
       O    13.11828   16.57965    3.45115
      H1    13.81756   16.60515    4.18932
       H    13.31646   17.33330    6.06881
       O    14.30902   17.20088    5.94063
      H1    14.76680   17.94087    5.65373
       H     9.77268   14.54669    4.70451
       O    10.40699   13.87500    4.52504
      H1    11.18291   14.01579    5.03852
       H     9.41642   19.32474    3.49262
       O     8.51115   19.27865    3.19014
      H1     7.91563   19.16794    3.92227
       H     8.23598   16.57930    8.17816
       O     7.95050   16.42673    7.26932
      H1     7.95394   15.46215    7.16275
       H    13.47393   13.73232    6.01864
       O    12.59815   14.04741    6.24869
      H1    12.59816   14.39488    7.16230
       H     8.76638   16.74731    5.60255
       O     9.48732   16.38004    5.05340
      H1     9.09304   16.41479    4.12489
       H     5.39229   15.18639    2.83237
       O     6.24359   14.80369    3.16462
      H1     6.14510   14.71135    4.11064
       H    10.49877   11.79317    6.92169
       O     9.82621   11.85024    6.22578
      H1     9.92932   12.66558    5.67189
       H    11.52052   17.98015    7.20431
       O    11.64172   17.98073    6.20598
      H1    11.12134   17.20855    5.89629
       H     8.99861   17.82765    1.18167
       O     9.31995   18.12746    0.32346
      H1     9.21464   19.09126    0.32743
       H     5.25427   13.35297    5.64355
       O     5.55835   14.22095    5.86920
      H1     4.79023   14.67509    6.28335
       H    11.84046   15.61399    2.21821
       O    11.23185   15.28899    1.56608
      H1    11.39584   14.34826    1.65515
       H     7.29826   18.12793    5.82052
       O     6.96500   18.94332    5.43501
      H1     7.11794   19.54270    6.17016
       H     9.63005   13.15684    3.00131
       O     8.99832   12.83655    2.35933
      H1     9.12222   11.85223    2.47135

