54
frame 2 | Written by MDAnalysis XYZWriter (release 2.4.3)
       H    16.21427   12.76597    3.83408
       O    15.96905   12.34434    3.00454
      H1    16.85279   12.11419    2.55328
       H    12.38866   11.67130    7.88951
       O    11.48733   11.51444    8.10020
      H1    11.22057   12.16555    8.77585
       H    14.52428   10.21610    8.78987
       O    14.59532    9.81640    9.67660
      H1    14.47272    8.86529    9.65211
       H    13.98862   10.23967   11.09009
       O    13.68289   10.48958   11.99111
      H1    12.79370   10.04445   12.09692
       H    12.34805    6.93355    6.65072
       O    12.32923    6.96408    5.68924
      H1    11.48520    7.39118    5.47457
       H    18.03176    8.51407    4.85636
       O    18.34060    8.44675    5.76343
      H1    17.73521    8.08948    6.36086
       H    17.60533   10.53030    5.29692
       O    18.10503   11.31440    5.05470
      H1    18.91920   11.20005    5.54447
       H    15.21083    7.26052    6.96639
       O    15.84740    7.01297    6.24157
      H1    15.57489    7.52170    5.49389
       H    16.99646   11.88704    7.95463
       O    16.63472   12.46106    7.22036
      H1    17.09323   12.23995    6.41816
       H    13.94000    7.53772    2.99173
       O    14.22209    7.68780    3.93493
      H1    13.36475    7.43552    4.35256
       H    13.47393   13.73232    6.01864
       O    12.59815   14.04741    6.24869
      H1    12.59816   14.39488    7.16230
       H    14.87520   11.68763    7.25561
       O    14.13865   11.13806    7.41432
      H1    14.17284   10.54196    6.67148
       H    14.48592    9.21583    4.58752
       O    14.81937    9.94270    5.07324
      H1    14.89621   10.69647    4.49959
       H    10.49877   11.79317    6.92169
       O     9.82621   11.85024    6.22578
      H1     9.92932   12.66558    5.67189
       H    17.81005   10.23475    9.09671
       O    17.22556   10.92627    9.45761
      H1    16.45265   10.33706    9.68599
       H    15.61304   14.71455    5.10026
       O    15.31147   13.79551    5.38477
      H1    15.85848   13.53133    6.13000
       H    13.43024    7.09824    9.26042
       O    14.37822    7.18099    9.05789
      H1    14.89191    6.50329    9.57944
       H    13.25869    9.68656    3.11552
       O    12.64103   10.07064    2.45388
      H1    11.74419   10.03426    2.80649

