54
frame 3 | Written by MDAnalysis XYZWriter (release 2.4.3)
       H   -16.43997   18.76434    5.92826
       O   -17.27635   18.63321    6.39807
      H1   -16.94201   18.90574    7.27173
       H   -17.79107   20.01700    9.06797
       O   -17.06955   19.46268    8.94452
      H1   -17.31561   18.60818    9.31770
       H   -10.27527   16.42671   10.25114
       O    -9.38655   16.58776    9.90554
      H1    -8.85872   16.86263   10.65675
       H   -13.03634   16.60781    8.03960
       O   -12.60919   17.35680    8.44957
      H1   -12.35513   17.02727    9.31536
       H   -17.33830   16.19334    9.75080
       O   -17.76266   16.96576   10.13954
      H1   -18.71429   16.92458    9.83474
       H   -16.58471   15.68355    5.96398
       O   -17.19654   15.45906    5.30732
      H1   -17.22678   16.29165    4.77471
       H   -14.27913   14.66894    6.90870
       O   -14.58179   15.49789    7.31030
      H1   -15.33228   15.19296    7.85393
       H    -9.18682   16.88500    4.42672
       O    -9.71160   17.64568    4.18434
      H1   -10.30882   17.77619    4.92659
       H   -11.87338   15.72253   11.71795
       O   -11.86721   16.54413   11.25075
      H1   -11.45847   17.26321   11.76158
       H   -10.24133   15.71078    8.26286
       O   -10.35138   15.63401    7.31006
      H1    -9.48043   15.63274    6.93379
       H   -12.00303   11.91177    4.46548
       O   -11.49607   12.48111    5.06419
      H1   -10.94165   11.83846    5.60007
       H   -11.55601   18.04192    6.85704
       O   -11.21804   18.69097    6.26579
      H1   -10.58159   19.17737    6.78558
       H   -15.06635   19.47937    9.34832
       O   -14.17794   19.38080    9.70026
      H1   -13.86068   18.65569    9.13675
       H   -10.34615   18.82323    9.25822
       O   -10.18341   19.78796    9.15738
      H1    -9.29729   19.95782    9.51787
       H   -17.07249   14.14909    9.15585
       O   -16.27581   14.65110    9.25144
      H1   -15.81600   14.28892   10.02858
       H   -12.76895   12.83947    6.48854
       O   -13.57984   12.88699    6.99645
      H1   -13.67618   12.01774    7.32348
       H    -7.17623   14.62549    8.53549
       O    -7.33939   15.52864    8.31569
      H1    -8.14486   15.76481    8.84091
       H   -12.12084   13.06908    8.53274
       O   -11.16919   13.29226    8.53254
      H1   -11.13680   14.05642    7.95722

