54
frame 0 | Written by MDAnalysis XYZWriter (release 2.4.3)
       H   -10.85830   17.52111   -1.65519
       O   -11.51274   17.51379   -0.91983
      H1   -11.15471   16.79059   -0.41482
       H    -2.37879   17.71560   -2.72889
       O    -2.84949   17.40049   -1.95057
      H1    -2.83673   18.17132   -1.35316
       H    -0.22968   14.88238   -2.20299
       O    -0.97317   15.23617   -1.67310
      H1    -1.30709   16.00662   -2.12911
       H    -4.83495   18.66191    5.15821
       O    -5.72164   18.45268    4.82866
      H1    -5.57150   18.08064    3.92557
       H    -1.86682   18.04023   -4.70421
       O    -1.17856   17.61366   -4.15143
      H1    -0.39826   18.15137   -4.15651
       H    -5.80360   18.82839   -1.50807
       O    -5.74815   19.39514   -0.73108
      H1    -6.59254   19.47615   -0.32803
       H   -11.35769   18.96044    0.08188
       O   -11.41716   19.76232    0.59838
      H1   -11.46973   19.40292    1.49728
       H    -9.89497   18.29765    3.15729
       O   -10.41383   19.07529    3.41376
      H1   -10.43985   18.88640    4.35708
       H    -7.99724   15.17298   -1.82885
       O    -7.73951   15.68339   -1.06318
      H1    -7.42774   14.97689   -0.52342
       H    -3.66324   15.42138   -4.58903
       O    -4.15441   16.20536   -4.79350
      H1    -4.66435   16.46343   -3.98075
       H    -9.36651   17.73091   -3.72017
       O    -9.49317   17.92603   -2.76358
      H1    -9.53713   18.89259   -2.71533
       H    -5.50493   14.56360    1.56169
       O    -4.76856   15.13433    1.62447
      H1    -5.01273   15.87992    2.22963
       H    -1.11743   18.85615   -0.00983
       O    -1.72467   19.53093   -0.32560
      H1    -2.48478   19.41628    0.23762
       H    -6.76553   17.57689    1.68908
       O    -5.92157   17.56118    2.25409
      H1    -5.12798   17.81886    1.73673
       H    -4.88557   16.75845   -1.97674
       O    -5.70676   16.95196   -2.46014
      H1    -6.29461   16.49529   -1.84122
       H    -4.06026   19.29695   -4.87638
       O    -3.49933   18.78258   -5.46903
      H1    -3.74664   17.89491   -5.25955
       H    -8.34813   17.10215   -0.10645
       O    -8.36198   17.35183    0.86772
      H1    -8.63222   18.28807    0.86175
       H   -10.71163   14.85067    0.47453
       O   -10.60452   15.67297    0.99609
      H1    -9.72324   16.06357    0.92881

