54
frame 2 | Written by MDAnalysis XYZWriter (release 2.4.3)
       H    16.65686   -1.02479   12.53184
       O    16.34568   -1.71263   13.12687
      H1    15.62414   -1.39355   13.65826
       H    14.73626   -7.35266   11.88314
       O    14.08227   -7.38671   11.14869
      H1    14.29299   -6.74156   10.44467
       H    13.73827    0.50806   11.29405
       O    13.66246   -0.41966   11.67037
      H1    13.88463   -1.02183   10.96509
       H    14.69933   -1.37612    8.85844
       O    14.95034   -1.81555    9.66350
      H1    15.66642   -2.42210    9.61730
       H    13.10919   -4.26792   13.72151
       O    13.06508   -3.30212   13.65206
      H1    13.64108   -3.17855   12.83169
       H    13.75271   -2.08712   14.71012
       O    14.26656   -1.51485   15.29611
      H1    13.56540   -1.04540   15.78965
       H    16.49640   -4.50739   10.09033
       O    17.05111   -3.69238   10.23475
      H1    17.66846   -3.82217   10.95038
       H    16.35010   -0.79838   10.58068
       O    17.04055   -0.21538   10.92020
      H1    17.70947   -0.17196   10.19008
       H    19.77307   -4.37028   15.99675
       O    19.78885   -3.56608   16.50174
      H1    19.06539   -3.06975   16.08811
       H    15.50776   -7.69228   14.13996
       O    15.97453   -7.23411   13.39932
      H1    16.12518   -6.33504   13.76267
       H    12.93299   -3.82389   16.61238
       O    13.70717   -3.38990   17.06480
      H1    14.07703   -2.79660   16.43013
       H    16.04862   -5.73377   17.41624
       O    15.47023   -5.31171   18.07963
      H1    15.15834   -4.51688   17.59595
       H    19.44736   -1.16144   11.97117
       O    19.69256   -1.85467   12.64114
      H1    19.27809   -1.56926   13.48596
       H    17.69320   -6.67152   15.69116
       O    17.33930   -5.82199   16.01409
      H1    17.91739   -5.53649   16.71100
       H    18.55659   -7.25202   11.08570
       O    18.45760   -6.49999   11.69222
      H1    17.91505   -6.74723   12.45942
       H    18.88290   -7.52608   14.82053
       O    18.39253   -8.15526   15.29502
      H1    18.74655   -8.27393   16.21465
       H    18.44568   -0.75821   15.21574
       O    18.34973   -1.66300   15.05307
      H1    17.47000   -1.75463   14.58910
       H    16.88350   -4.80081   14.71941
       O    16.53957   -4.65970   13.79628
      H1    16.64604   -3.74689   13.53389

