54
frame 2 | Written by MDAnalysis XYZWriter (release 2.4.3)
       H   -16.71445  -11.49030    0.26361
       O   -17.14509  -11.27876   -0.58209
      H1   -18.02353  -11.70815   -0.39161
       H   -16.96260  -15.64491   -3.46638
       O   -17.60087  -15.14095   -3.95062
      H1   -18.35128  -15.68248   -3.92692
       H   -11.24827  -13.18087    0.19175
       O   -10.48994  -12.71563   -0.15690
      H1   -10.77459  -11.81381   -0.47541
       H   -15.64644  -16.24272   -0.70355
       O   -15.34973  -15.80126    0.07317
      H1   -15.76369  -16.03787    0.85841
       H   -16.40607  -12.26352    2.23998
       O   -15.65613  -12.50901    1.59629
      H1   -14.85321  -12.15237    2.02546
       H    -9.62326  -14.67962   -3.14585
       O    -9.33887  -13.87687   -2.71408
      H1    -9.75053  -13.87527   -1.85922
       H   -15.02705  -12.52420   -1.47665
       O   -14.13430  -12.25250   -1.39517
      H1   -13.61854  -13.09002   -1.51894
       H   -18.68121  -13.75831    0.24641
       O   -18.29264  -14.07791    1.10516
      H1   -17.36148  -14.05277    0.83803
       H    -9.20571  -10.60571   -2.26955
       O    -9.96688  -10.29552   -1.77385
      H1   -10.31487   -9.48100   -2.22283
       H   -16.23573  -12.30184   -4.41747
       O   -15.66557  -13.07166   -4.54955
      H1   -16.17336  -13.86299   -4.74870
       H   -12.82053  -11.59969   -3.10472
       O   -12.04668  -11.96423   -3.56674
      H1   -11.25972  -11.70493   -3.02718
       H   -12.69298  -14.95321    0.08220
       O   -12.73374  -14.20226    0.70034
      H1   -13.69483  -13.93113    0.70802
       H   -12.36670  -17.51264   -1.68299
       O   -12.02042  -17.39575   -2.56693
      H1   -11.98510  -18.26417   -2.98037
       H   -14.90775  -15.29652   -2.78391
       O   -15.28249  -16.11248   -2.55152
      H1   -14.96747  -16.76913   -3.17097
       H   -12.74293   -9.56888   -1.28688
       O   -12.76414   -9.88416   -0.39307
      H1   -13.25738  -10.73454   -0.51317
       H   -11.88153  -13.79872   -2.87222
       O   -12.39971  -14.39154   -2.26851
      H1   -12.81741  -15.16023   -2.76094
       H   -12.43620  -17.05261    0.80487
       O   -12.98425  -17.13394    0.01219
      H1   -13.86981  -16.72816    0.18837
       H   -14.06874  -13.20113   -5.23187
       O   -13.19336  -13.31275   -5.61515
      H1   -12.62910  -12.75636   -4.95272

