54
frame 2 | Written by MDAnalysis XYZWriter (release 2.4.3)
       H    -5.36968   12.33723   15.86107
       O    -4.51773   12.39984   16.30346
      H1    -4.68562   13.23832   16.79800
       H     3.30856    6.55324   16.55851
       O     4.14124    7.11558   16.58368
      H1     3.89255    8.03671   16.35798
       H    -3.04648   11.16087   13.48665
       O    -3.24830   10.41274   12.93985
      H1    -2.99478   10.63193   12.02435
       H     3.53832   10.35346   15.23123
       O     3.28365   10.05898   16.09364
      H1     4.03988   10.47453   16.50025
       H     0.09173   13.48246   17.94507
       O    -0.52614   12.75801   17.72215
      H1    -1.10760   12.56698   18.51180
       H    -0.75674   13.60771   16.13669
       O    -0.55951   14.15030   15.36471
      H1    -0.90810   14.97916   15.60848
       H    -0.68397    7.35128   18.38661
       O    -0.19092    7.53074   17.59290
      H1    -0.23367    8.46374   17.37075
       H    -2.49901    5.78411   15.23480
       O    -3.33791    5.98781   15.69282
      H1    -3.21259    6.96532   15.90143
       H     0.97854    9.95342   12.99554
       O     1.73026   10.59269   13.01950
      H1     1.32026   11.45319   12.97622
       H     1.23378    5.41907   12.79210
       O     1.71668    6.15330   13.05795
      H1     1.72750    6.04591   14.02967
       H     0.01265   13.29216   13.68752
       O     0.61692   13.04582   12.96210
      H1    -0.07182   12.98145   12.24221
       H     1.12956    6.27568   16.78047
       O     1.85277    5.80262   16.36247
      H1     1.82560    4.94468   16.81220
       H    -1.87761   10.34238   15.19275
       O    -1.43210    9.52741   15.46935
      H1    -0.56351    9.86145   15.75900
       H    -2.04271   13.02337   14.69561
       O    -2.43941   12.16698   14.79820
      H1    -3.08697   12.30445   15.51564
       H     1.68516   10.21643   16.77487
       O     0.83307   10.35285   17.13702
      H1     0.83760   11.19985   17.57093
       H     0.60533    7.45647   12.94269
       O    -0.06337    8.18470   12.89332
      H1    -0.61234    8.12736   13.63842
       H     2.45719   14.43890   14.49449
       O     3.18329   13.96555   14.92035
      H1     2.82687   13.36290   15.56827
       H    -4.20855    9.14254   17.05150
       O    -3.69015    8.47176   16.52738
      H1    -2.88826    8.92466   16.26541

