54
frame 0 | Written by MDAnalysis XYZWriter (release 2.4.3)
       H     8.89919    7.90888  -11.02213
       O     9.18687    8.54765  -10.34081
      H1     9.20180    8.21462   -9.45389
       H    10.69073   11.35837  -13.49230
       O    10.88361   12.09306  -14.03018
      H1    11.80878   12.37546  -13.65297
       H    14.25591   10.99958  -10.69787
       O    14.28701   11.91301  -11.02368
      H1    13.65238   12.39969  -10.50580
       H    14.60277    9.50427   -8.49874
       O    14.44540    9.65948   -9.43928
      H1    13.73577    9.07544   -9.69460
       H    11.91485   13.82931   -9.49897
       O    12.76749   13.82160   -9.90931
      H1    12.74987   14.36566  -10.72826
       H    10.16841   12.56285   -8.81210
       O     9.73629   13.45686   -9.15467
      H1     9.79484   13.60544  -10.11724
       H    10.97579   10.90081   -9.27290
       O    10.92227   11.23660   -8.34181
      H1    10.05434   10.82006   -8.02716
       H    11.97270    9.95258  -11.42835
       O    11.18031   10.32988  -11.03919
      H1    10.59720    9.60057  -11.03016
       H     9.16225    6.70743  -13.32139
       O     8.67198    7.40971  -12.88347
      H1     8.83160    8.21394  -13.32281
       H    14.15311   11.78602  -14.01724
       O    13.66491   12.47669  -13.54924
      H1    13.76561   12.21619  -12.67496
       H    13.11731    7.87079  -11.95547
       O    13.54217    8.72444  -12.11740
      H1    14.39797    8.54740  -12.58703
       H    10.06669   13.20146  -12.22684
       O     9.27117   13.59080  -11.79617
      H1     8.76172   12.79981  -11.55450
       H    10.94188    6.72102  -10.97172
       O    11.87850    6.54715  -11.23390
      H1    12.23968    6.61451  -10.33628
       H     8.80263   10.18656  -14.62569
       O     8.92042    9.91093  -13.65974
      H1     8.36566   10.50804  -13.09266
       H     7.91832   10.27610  -10.96247
       O     7.88925   11.09881  -11.50285
      H1     6.99115   11.50646  -11.47290
       H    17.35806    8.30791   -9.89461
       O    16.74781    8.71802  -10.56647
      H1    15.97068    9.08630   -9.98030
       H    13.53315   11.54197   -6.52208
       O    12.85050   10.86127   -6.39234
      H1    12.26050   10.96432   -7.18983
       H    12.36329    7.59537   -7.83898
       O    12.78960    7.32529   -8.63698
      H1    13.60185    6.89505   -8.40457

