54
frame 2 | Written by MDAnalysis XYZWriter (release 2.4.3)
       H   -19.25924   -1.08876   -4.91814
       O   -19.03767   -0.22795   -5.27671
      H1   -18.46450    0.13546   -4.60888
       H   -16.95272   -5.96342   -2.45806
       O   -17.79934   -6.28747   -2.08374
      H1   -18.46354   -6.04307   -2.66072
       H   -17.44545   -5.06781   -6.94641
       O   -17.94736   -5.44245   -6.21744
      H1   -18.20209   -4.69900   -5.67653
       H   -14.85889   -5.79100   -3.22134
       O   -15.60936   -5.66100   -3.81710
      H1   -15.62156   -6.43709   -4.37800
       H   -12.86895   -3.34572   -1.24861
       O   -12.07636   -2.77596   -1.49499
      H1   -11.74280   -2.49292   -0.62406
       H   -16.43634   -0.98790   -7.99129
       O   -15.77562   -1.70605   -8.13940
      H1   -15.48593   -1.72959   -9.06032
       H   -15.94093   -4.06496   -4.13423
       O   -16.29809   -3.16159   -3.91268
      H1   -15.54356   -2.55728   -4.20959
       H   -15.42770   -5.54532   -8.18444
       O   -16.20600   -5.04243   -8.35533
      H1   -16.01745   -4.13864   -8.18553
       H   -18.55970   -2.99599   -6.05223
       O   -18.76694   -2.95914   -5.08270
      H1   -17.92015   -2.96881   -4.61424
       H   -13.69458   -1.39487   -3.85886
       O   -14.25060   -1.28126   -4.63450
      H1   -14.18958   -0.35188   -4.92808
       H   -16.06750   -8.49502   -5.04403
       O   -15.37711   -7.97488   -5.52327
      H1   -15.44535   -8.32019   -6.40041
       H   -13.18734   -6.08653   -8.57808
       O   -13.66783   -6.31903   -7.77950
      H1   -13.28450   -5.71568   -7.07786
       H   -12.04538   -4.61735   -4.56324
       O   -12.01961   -4.62329   -3.59127
      H1   -11.62986   -3.82053   -3.31469
       H   -16.36743   -2.67859   -2.07351
       O   -16.27596   -2.82146   -1.11277
      H1   -17.10410   -3.10145   -0.69832
       H   -12.76980   -6.39706   -1.30402
       O   -13.39848   -6.02430   -1.88575
      H1   -12.90996   -5.30092   -2.37790
       H   -19.18367   -7.84409   -4.91121
       O   -18.25174   -7.88175   -5.04495
      H1   -18.07086   -6.97267   -5.41413
       H   -12.49965   -3.80162   -6.75669
       O   -12.04106   -4.50957   -6.25951
      H1   -11.12173   -4.54181   -6.67607
       H   -13.87769   -4.89633   -0.63612
       O   -13.96821   -3.97254   -0.26723
      H1   -14.77616   -3.52806   -0.56401

