54
frame 2 | Written by MDAnalysis XYZWriter (release 2.4.3)
       H    -4.99254   -8.57245    5.65829
       O    -5.71395   -7.97095    5.34015
      H1    -6.50881   -8.37992    5.65714
       H    -1.18637  -10.11973    0.59020
       O    -1.37850  -10.87807    0.00528
      H1    -0.86580  -11.54528    0.46294
       H     1.19034   -7.08889    1.81994
       O     1.00302   -7.35747    0.92237
      H1     1.86598   -7.28886    0.45644
       H    -0.84818   -5.84855    6.70545
       O    -0.23481   -6.51269    6.28200
      H1    -0.47392   -7.37486    6.66845
       H     1.84677   -5.66022    3.29601
       O     1.60240   -6.54804    3.60686
      H1     1.14219   -6.45481    4.43949
       H    -1.42677   -4.73403    1.45254
       O    -1.30183   -5.20238    0.55232
      H1    -1.07161   -4.45075   -0.08755
       H    -2.02801   -3.62743    4.20439
       O    -1.90533   -2.82913    4.76469
      H1    -1.26880   -2.98537    5.48299
       H    -3.80136  -10.16881    6.52516
       O    -3.57702   -9.86796    5.62972
      H1    -3.57585  -10.66499    5.09821
       H    -2.54535   -6.26164    8.47109
       O    -2.73915   -7.10291    8.84039
      H1    -2.27644   -7.74374    8.22703
       H    -4.84906   -6.29611    6.36346
       O    -4.60969   -5.39712    6.07538
      H1    -5.18340   -5.27192    5.28386
       H    -2.48522   -7.54266    0.17803
       O    -1.81231   -8.17943    0.40386
      H1    -1.09100   -7.62882    0.70827
       H    -1.92892   -9.46015    6.82558
       O    -1.31933   -8.88532    7.24413
      H1    -0.72829   -9.38026    7.80724
       H    -1.30984  -10.41423    3.02500
       O    -2.12406  -10.93476    3.10589
      H1    -2.64670  -10.52694    2.41669
       H    -0.15689  -10.24178    4.17838
       O     0.11504   -9.67017    3.40275
      H1    -0.31070   -8.81541    3.56716
       H    -2.87933   -4.87881    6.64840
       O    -2.15495   -4.90410    7.23811
      H1    -1.91431   -4.02344    7.42124
       H    -2.23553   -7.69302    4.32106
       O    -1.92637   -7.63536    3.43073
      H1    -2.72965   -7.71974    2.91327
       H    -5.19029   -9.62876    2.30217
       O    -5.19664   -8.74470    2.68375
      H1    -5.53234   -8.73336    3.56600
       H    -3.39764   -4.82929    3.16178
       O    -2.46769   -4.93912    3.13793
      H1    -2.27253   -5.91152    3.15068

