54
frame 2 | Written by MDAnalysis XYZWriter (release 2.4.3)
       H    14.66793  -12.69170    3.94983
       O    13.85533  -12.50521    3.39226
      H1    13.17457  -13.16875    3.70653
       H    16.67676  -13.98737    0.29032
       O    16.63737  -13.10824   -0.11308
      H1    16.29412  -13.21678   -0.99367
       H    10.19223  -13.14905    0.37177
       O     9.24487  -12.90501    0.53747
      H1     9.14828  -12.14092   -0.01915
       H    11.06149  -14.01108    3.53510
       O    11.77213  -14.41027    4.09271
      H1    11.78520  -15.34818    3.85289
       H    13.02162  -10.28447    0.13560
       O    12.16846   -9.89436   -0.18369
      H1    11.88948  -10.60064   -0.80724
       H    13.13586  -16.24009   -2.83023
       O    13.29836  -15.86674   -3.66807
      H1    14.19663  -16.18324   -3.80994
       H    14.10395  -11.79136    1.90536
       O    14.26963  -11.66084    0.95246
      H1    15.06171  -12.16378    0.83425
       H     8.39106  -14.06730   -0.30873
       O     7.89049  -14.54412   -0.95692
      H1     8.01423  -14.05254   -1.81889
       H    13.15306  -11.27323    4.00208
       O    12.43363  -10.65498    4.36342
      H1    12.97159  -10.16926    5.03327
       H    12.86479  -13.05849    0.44250
       O    11.98986  -13.09619   -0.01020
      H1    11.82256  -13.99190   -0.37256
       H    13.19663   -9.46576   -2.22086
       O    13.92975   -9.27643   -2.77472
      H1    14.61334   -8.87878   -2.29403
       H    15.81819  -14.19480   -2.73917
       O    16.02628  -13.28654   -3.05334
      H1    15.21644  -12.91269   -3.45185
       H    15.94270  -15.84145    3.79575
       O    15.11759  -15.27084    3.70378
      H1    15.25865  -14.59783    4.42093
       H    10.80665  -16.56200   -1.15912
       O    10.90343  -15.68681   -0.77730
      H1     9.94455  -15.49472   -0.45898
       H    17.28110  -15.76131    1.52909
       O    16.36712  -15.90694    1.40490
      H1    15.89966  -15.45686    2.14603
       H    11.99757   -7.41222    1.03086
       O    11.45767   -7.94183    1.58141
      H1    11.57093   -8.83841    1.21633
       H    13.01800  -17.11184    2.63298
       O    12.98593  -17.07546    3.64450
      H1    13.62187  -16.40063    3.78959
       H    11.43734  -12.48652   -1.60457
       O    10.86442  -12.20531   -2.29555
      H1    11.11077  -12.65472   -3.11158

