54
frame 3 | Written by MDAnalysis XYZWriter (release 2.4.3)
       H    -4.38811    4.90455    9.84946
       O    -4.46554    4.64600   10.75189
      H1    -4.80606    3.74668   10.76555
       H    -7.12910    0.62957   11.79823
       O    -6.56815    0.00409   11.37448
      H1    -6.41189   -0.62655   12.10799
       H   -10.92461    5.51932   12.47656
       O   -11.83727    5.76561   12.68073
      H1   -11.88343    6.75770   12.66689
       H   -13.74752    3.90196   11.98823
       O   -13.56299    2.94962   12.10652
      H1   -13.10474    2.78196   12.96123
       H    -8.20959    2.33668   10.26920
       O    -8.44022    2.31295   11.21317
      H1    -9.19506    1.65269   11.35029
       H    -7.86407    2.68015   14.98576
       O    -6.95147    3.13674   15.12150
      H1    -7.00992    3.79721   14.33706
       H    -6.10695    7.86395   11.90949
       O    -5.70554    7.17025   11.33244
      H1    -4.79803    7.09879   11.58362
       H    -8.16430    5.21803   12.11883
       O    -9.05490    4.79590   11.97255
      H1    -8.95325    3.89881   11.64910
       H   -12.94110    1.81562   11.04236
       O   -12.35602    1.30042   10.40343
      H1   -12.90159    0.51729   10.13196
       H    -7.49073    3.86049    8.98102
       O    -7.33994    2.93937    8.63106
      H1    -6.37348    2.75272    8.73783
       H   -10.50601    2.58699    7.29113
       O   -10.66621    1.73221    7.62251
      H1   -10.98816    1.83976    8.52563
       H   -11.44577    5.39336    9.72970
       O   -11.10958    4.63386    9.26674
      H1   -11.35770    3.95964    9.94305
       H    -6.49771    5.98898   13.43549
       O    -6.54162    5.13310   12.96670
      H1    -5.87440    5.23817   12.28526
       H    -8.81445    5.58640   10.06038
       O    -8.22639    5.82529    9.36660
      H1    -7.56842    6.31138    9.81553
       H   -10.05087    1.97981   15.04607
       O    -9.19715    1.54364   15.19684
      H1    -9.18527    1.22884   16.14467
       H   -11.16306    0.95436   11.53141
       O   -10.46970    0.69840   12.13187
      H1   -10.77659    0.85154   13.01819
       H   -11.44585    4.50382   16.00716
       O   -11.31719    5.36415   15.57083
      H1   -11.71650    5.42565   14.68190
       H   -12.27098    2.18745   15.10528
       O   -12.22297    1.76049   14.26254
      H1   -12.81184    1.02151   14.30919

