54
frame 3 | Written by MDAnalysis XYZWriter (release 2.4.3)
       H    15.23015   -0.86809   13.54638
       O    15.57951   -1.42399   14.24698
      H1    14.88352   -1.53342   14.88011
       H    18.61201   -4.51572   11.56463
       O    19.08048   -4.09594   10.81489
      H1    19.33653   -3.25989   11.17931
       H    14.35224    3.21219    9.22666
       O    15.15153    3.67123    9.53225
      H1    15.15785    4.55639    9.15329
       H    17.99656    2.29014   12.97932
       O    18.64206    2.64665   12.38508
      H1    19.32801    2.96837   13.02332
       H    12.05092    2.36367   13.38689
       O    12.49970    1.68782   13.94478
      H1    13.15457    1.25679   13.40502
       H    14.70382    0.91343   11.99977
       O    14.24925    0.16798   12.41981
      H1    13.59814   -0.14084   11.82713
       H    19.03180   -3.78504    6.59455
       O    18.72503   -2.92167    6.87854
      H1    17.99353   -3.15088    7.51814
       H    14.44982   -0.80502    8.46623
       O    15.15501   -1.04315    9.04730
      H1    15.32995   -1.98251    8.94137
       H    19.41022    2.89451    9.34063
       O    19.16155    3.67220    8.84972
      H1    18.59125    3.38622    8.11522
       H    13.43840    1.05859    8.09551
       O    13.42554    0.28735    7.48652
      H1    14.17487    0.34042    6.81105
       H    17.75962    0.00941    7.54337
       O    17.36609    0.56915    8.19337
      H1    16.58528    0.05169    8.48502
       H    16.64135   -4.42412    8.77364
       O    17.24272   -3.68225    8.90961
      H1    17.98792   -3.97208    9.46755
       H    16.47308   -0.24578   10.59539
       O    17.10626    0.34254   11.06839
      H1    17.71785    0.69038   10.38035
       H    15.78040    3.11065   11.25017
       O    15.72488    2.49636   11.98501
      H1    16.34861    1.75988   11.82226
       H    12.18439   -0.94157   10.18995
       O    11.96351   -0.07771   10.64850
      H1    11.01251   -0.12877   10.85344
       H    16.28867    1.36474    6.60712
       O    15.66827    1.12162    5.85733
      H1    14.94890    1.72868    5.77972
       H    18.50302   -0.11125   14.12243
       O    18.61492   -1.00527   13.85590
      H1    17.80313   -1.33204   13.45961
       H    12.05268    2.74848    8.81969
       O    12.78959    2.32242    9.28589
      H1    12.36451    1.51094    9.64912

