54
frame 4 | Written by MDAnalysis XYZWriter (release 2.4.3)
       H   -15.61913   -5.24817   10.53208
       O   -16.10422   -6.12107   10.40799
      H1   -16.89812   -5.74368    9.89889
       H   -13.74267  -11.48108    9.96554
       O   -13.69309  -12.23104    9.37259
      H1   -13.55400  -11.84168    8.50238
       H   -13.44392   -7.65160    8.57038
       O   -14.32828   -8.01602    8.83190
      H1   -14.85458   -7.23854    9.01704
       H   -16.98634   -7.50165   11.73871
       O   -17.72971   -8.13560   11.84430
      H1   -18.23991   -8.11612   11.03674
       H   -12.28277  -10.21566   11.49087
       O   -11.47064  -10.67148   11.68399
      H1   -11.72482  -11.60015   11.96185
       H   -10.77242   -4.84764    8.91201
       O   -10.58895   -5.54969    9.56773
      H1    -9.85140   -6.00018    9.14783
       H   -15.90215   -8.44201    5.81611
       O   -15.21219   -8.93633    6.27259
      H1   -15.25733   -8.54931    7.19343
       H   -14.06079   -2.99140    9.25261
       O   -14.79876   -3.61574    9.33905
      H1   -15.46610   -2.95069    9.57279
       H   -15.03820  -13.25823    9.04951
       O   -15.66503  -14.04601    8.97948
      H1   -15.31940  -14.74714    9.58621
       H   -13.03570   -7.49061   12.48656
       O   -13.72580   -7.54141   13.15177
      H1   -13.86540   -6.63527   13.34288
       H   -12.90055   -6.33918    3.88422
       O   -13.24724   -5.41795    4.00253
      H1   -13.49327   -5.39921    4.92358
       H   -14.68633   -9.71632   11.55582
       O   -14.34509   -9.90039   10.70457
      H1   -14.34509   -9.09094   10.10967
       H   -10.17734   -6.31388    5.42495
       O   -10.11417   -7.06266    6.02684
      H1    -9.88715   -7.87505    5.47551
       H   -11.63315   -6.26301    8.45820
       O   -12.08965   -6.79549    7.74663
      H1   -11.44710   -6.81905    7.04406
       H   -18.61656   -3.86476    9.72095
       O   -17.91924   -4.38501    9.27012
      H1   -17.45696   -3.65942    8.78270
       H   -14.14352  -10.54661    6.41598
       O   -13.62250  -11.34308    6.57498
      H1   -12.72726  -11.16696    6.19216
       H   -16.06853   -5.81172    5.43722
       O   -16.97671   -5.96569    5.07957
      H1   -16.99136   -6.04763    4.14100
       H   -14.25392   -6.24472    6.73052
       O   -14.78116   -5.44102    6.46995
      H1   -14.66565   -4.70685    7.05623

