54
frame 3 | Written by MDAnalysis XYZWriter (release 2.4.3)
       H   -15.43731  -12.07752   -0.41767
       O   -16.13059  -11.69752   -0.98756
      H1   -16.90012  -12.24738   -0.81354
       H   -15.90999   -8.87467    3.02315
       O   -15.37930   -9.49157    2.43688
      H1   -15.16350   -8.98205    1.67203
       H    -8.52166   -8.07780    3.59043
       O    -9.14057   -8.30749    4.28301
      H1    -9.65031   -9.08530    4.05547
       H   -17.72791  -13.17694    3.90656
       O   -16.97480  -12.71180    3.52325
      H1   -16.28986  -12.85157    4.26619
       H    -9.41150  -12.97036    3.14582
       O    -8.68941  -12.32563    3.00367
      H1    -8.29987  -12.75429    2.24671
       H   -10.64641  -13.18462   -0.45773
       O   -10.07996  -12.44128   -0.74473
      H1   -10.64108  -11.64259   -0.68523
       H   -10.82778  -10.99174    4.32097
       O   -10.64665  -10.57290    3.45553
      H1    -9.95328  -11.09004    2.95479
       H   -14.82962  -13.61931    1.04806
       O   -14.02126  -13.15239    0.63428
      H1   -13.80446  -12.54562    1.35876
       H   -11.15201  -14.33045    4.86573
       O   -10.38184  -13.89503    4.70130
      H1    -9.68408  -14.54555    4.86572
       H   -11.23924  -12.08559    6.53085
       O   -11.07329  -11.19880    6.14158
      H1   -10.11566  -10.94249    6.31185
       H   -13.83338  -10.67037    2.51642
       O   -13.28326  -11.45025    2.60788
      H1   -12.46108  -10.99750    2.92203
       H   -13.88889  -12.34721    3.92753
       O   -14.29116  -12.90858    4.60995
      H1   -14.15326  -12.41264    5.43789
       H   -11.76452   -7.16267    4.60950
       O   -12.61229   -7.36370    4.23438
      H1   -12.39467   -7.62232    3.28149
       H   -12.42548  -14.91544   -1.15589
       O   -12.04922  -14.58398   -0.35310
      H1   -12.79731  -14.05117    0.10265
       H   -14.77748  -10.61150    6.58357
       O   -14.17718  -11.36296    6.75527
      H1   -13.27432  -11.08176    6.83662
       H   -13.77999  -14.51719    5.19185
       O   -13.34571  -15.23522    5.65199
      H1   -14.05572  -15.63199    6.09947
       H   -11.16966   -9.67593   -1.17462
       O   -11.81006  -10.08865   -0.60253
      H1   -12.62912  -10.19249   -1.15404
       H   -13.12363   -7.41809    1.01986
       O   -12.24093   -7.82326    1.20113
      H1   -12.06314   -8.62128    0.67176

