54
frame 4 | Written by MDAnalysis XYZWriter (release 2.4.3)
       H    16.46722    9.18091   -6.84237
       O    15.95997    9.92076   -7.18871
      H1    15.12817   10.06313   -6.76317
       H    14.17513   11.72641   -4.21440
       O    14.53905   12.31736   -3.57067
      H1    13.94834   13.07916   -3.50578
       H    15.84938    9.65559   -8.92576
       O    15.56804    9.74043   -9.82875
      H1    15.25441   10.63737   -9.82375
       H    15.45613   13.20774   -9.07307
       O    15.13501   12.40324   -8.67798
      H1    15.87008   12.05288   -8.16266
       H    16.37122   10.45767   -3.19374
       O    17.13833   10.14739   -2.66128
      H1    16.66035    9.90430   -1.88640
       H    15.95200    6.58765   -5.91660
       O    15.33568    5.95115   -5.48509
      H1    15.92489    5.73609   -4.73751
       H    18.98338   11.89046   -7.15600
       O    18.69044   11.18335   -7.80824
      H1    17.92819   10.79391   -7.31930
       H    12.72806   11.57123   -8.18375
       O    11.88748   11.09886   -8.23146
      H1    11.25921   11.85036   -8.33895
       H    18.18873   12.95207   -4.34580
       O    17.35788   13.37185   -4.16623
      H1    17.12248   13.51440   -3.26158
       H    15.28153    8.41242  -11.09286
       O    15.02484    7.92169  -11.90767
      H1    15.69887    8.23620  -12.53602
       H    17.77596    9.00660  -10.49050
       O    18.40933    8.31421  -10.58326
      H1    18.32137    7.89011  -11.48772
       H    14.69539   13.06505   -5.49405
       O    14.47285   13.63872   -6.24029
      H1    14.84857   13.22138   -7.02657
       H    17.78778    7.66377   -7.00545
       O    17.46554    7.76427   -6.09624
      H1    18.18151    8.11571   -5.52745
       H    12.68334   10.31414   -6.46393
       O    13.47745   10.41735   -5.96014
      H1    13.50883    9.56631   -5.42427
       H    19.80844    8.39542   -3.88266
       O    18.86730    8.29854   -3.85664
      H1    18.56015    8.97909   -3.25608
       H    14.82155    7.42646   -4.43715
       O    14.12821    8.14062   -4.36125
      H1    14.36759    8.61169   -3.59779
       H    13.57987    7.85873   -8.67590
       O    13.71819    6.85701   -8.65593
      H1    14.67999    6.73494   -8.67671
       H    17.33406    7.11807   -9.31913
       O    16.80392    7.04401   -8.55035
      H1    16.91213    6.13553   -8.26772

