54
frame 3 | Written by MDAnalysis XYZWriter (release 2.4.3)
       H   -15.57128   -5.61763   10.38646
       O   -16.22739   -6.27517   10.21278
      H1   -16.94114   -5.74808    9.84195
       H   -14.22272  -11.42338   10.19433
       O   -14.07727  -12.05917    9.44812
      H1   -14.53793  -11.68192    8.68563
       H   -16.91545  -10.61109   11.97677
       O   -16.63006  -11.53879   11.96620
      H1   -17.42690  -12.02457   12.09903
       H   -13.46250  -10.78103   16.74120
       O   -12.96985  -11.59573   16.90806
      H1   -12.39127  -11.31086   17.60428
       H    -9.83670   -8.38791   16.26749
       O    -9.62543   -9.29354   15.93264
      H1    -9.64397   -9.26891   14.97928
       H   -16.67352   -8.36798   11.49908
       O   -17.39021   -8.87683   11.86005
      H1   -18.18992   -8.72785   11.33225
       H   -12.72146  -10.11575   11.46318
       O   -11.93942  -10.48617   11.83196
      H1   -12.13920  -11.39479   11.86775
       H   -16.81318   -9.00536   13.48741
       O   -16.54754   -8.71004   14.38592
      H1   -15.62502   -8.95220   14.42811
       H   -13.46044  -12.10939   13.23561
       O   -14.13073  -11.54220   13.60179
      H1   -14.91866  -11.53487   13.05911
       H   -12.64741   -6.66057   11.32588
       O   -13.10923   -7.11496   12.01778
      H1   -13.42602   -6.41684   12.60176
       H   -14.02878   -8.46021   11.30424
       O   -14.28204   -9.32860   10.85198
      H1   -14.51555   -8.94834    9.97724
       H   -13.51890   -6.77355   16.78244
       O   -14.07154   -6.15195   16.25410
      H1   -15.04824   -6.32536   16.42486
       H   -16.61456   -7.18444   15.42054
       O   -16.67337   -6.38909   16.02786
      H1   -16.91153   -6.69161   16.88118
       H   -11.17999   -7.13837   13.32116
       O   -10.76062   -6.33082   13.03617
      H1   -11.23038   -5.61599   13.48505
       H    -9.31392   -9.39621   12.62400
       O   -10.02162   -9.21770   13.24257
      H1   -10.78896   -9.53718   12.69541
       H   -16.27560  -11.32298   16.50275
       O   -16.70843  -10.44549   16.40603
      H1   -16.69918  -10.24433   15.40175
       H   -13.71001   -5.43224   14.65192
       O   -13.67869   -5.04760   13.75425
      H1   -14.56477   -4.66247   13.68305
       H   -13.84720   -9.89705   14.05551
       O   -13.79305   -8.91650   14.23433
      H1   -13.56993   -8.36871   13.45699

