54
frame 3 | Written by MDAnalysis XYZWriter (release 2.4.3)
       H     8.94549    4.36417   -8.69839
       O     9.27724    5.16027   -8.34571
      H1     9.20262    4.92673   -7.44346
       H    11.15421    2.32006   -2.15680
       O    11.63610    2.55277   -1.39333
      H1    12.39716    3.08931   -1.77178
       H     9.74971    1.27871   -7.24942
       O     8.84027    1.35956   -7.00003
      H1     8.44217    1.98666   -7.62668
       H     5.64484    1.04831   -2.82037
       O     4.89083    0.54599   -3.24869
      H1     4.36039    0.59283   -2.46041
       H     5.35899    3.61205   -7.04854
       O     4.71478    3.19278   -7.65565
      H1     4.22676    2.55015   -7.13816
       H     5.47701   -0.37566   -8.42703
       O     5.82762    0.22764   -9.07597
      H1     4.95116    0.43032   -9.43816
       H    10.82330    0.66878   -3.71271
       O    10.09207    1.03006   -3.12266
      H1     9.34893    0.99406   -3.71997
       H     5.93805    5.29639   -5.65306
       O     6.49985    4.77977   -6.21822
      H1     6.86079    4.07874   -5.59019
       H     6.80500    1.83895   -9.17525
       O     7.41920    2.56438   -9.02265
      H1     6.92932    3.39672   -9.09127
       H    10.05127    4.68477   -3.91264
       O    10.23976    4.31288   -4.78692
      H1    11.20755    4.40253   -4.95636
       H     7.52432    2.20189   -3.28423
       O     7.33628    1.58181   -2.53750
      H1     8.02819    1.74726   -1.85784
       H     8.79194   -0.41527   -7.62908
       O     8.99809   -1.03601   -8.33781
      H1     9.14962   -1.89893   -7.94811
       H    12.05642    1.35224   -5.83623
       O    11.60466    1.09409   -6.62851
      H1    11.53701    1.90083   -7.14553
       H     5.31046   -2.85631   -5.35677
       O     5.99789   -2.43473   -5.91594
      H1     6.66120   -2.01976   -5.35915
       H     7.84104   -0.27582   -4.13463
       O     8.12646   -0.98275   -4.77325
      H1     8.56202   -1.65347   -4.24448
       H     8.02663    1.93943   -5.31891
       O     7.86434    2.85607   -4.89356
      H1     8.74960    3.28787   -4.97894
       H     8.93906    6.21373   -2.38633
       O     8.74834    5.39771   -2.82410
      H1     8.57864    4.73555   -2.08734
       H     9.59163    0.69696   -1.23067
       O     8.99828    0.55844   -0.47801
      H1     9.61703    0.63480    0.30155

