54
frame 3 | Written by MDAnalysis XYZWriter (release 2.4.3)
       H   -17.24162   -5.77510   -2.87538
       O   -18.14338   -5.70495   -2.44678
      H1   -18.73357   -5.32468   -3.13037
       H   -15.96616   -7.33379    0.85463
       O   -15.16286   -7.46070    0.37993
      H1   -15.42069   -8.18209   -0.27074
       H   -17.75007   -4.23237   -0.68465
       O   -18.23963   -4.38078    0.11704
      H1   -18.38204   -3.51517    0.47966
       H   -14.72270   -5.46604   -3.69823
       O   -15.58736   -5.14239   -3.70119
      H1   -16.01591   -5.42159   -4.47266
       H   -13.48993   -3.78210   -1.05401
       O   -12.82998   -3.08453   -1.32554
      H1   -12.53072   -2.66017   -0.54287
       H   -15.66205   -3.62352   -4.14685
       O   -15.86879   -2.70317   -4.28404
      H1   -15.01746   -2.31097   -4.59538
       H   -14.28264   -0.59481    2.61630
       O   -14.38030   -1.38780    2.01026
      H1   -14.72388   -2.07827    2.60223
       H   -16.24024   -1.10616   -0.19635
       O   -16.51833   -0.79340    0.64012
      H1   -15.74219   -1.05560    1.16584
       H   -18.34391   -7.84607   -0.49905
       O   -18.94586   -7.17077   -0.13341
      H1   -18.60474   -6.26858   -0.41707
       H   -14.85262   -4.37021    3.14328
       O   -15.45539   -3.96606    2.50463
      H1   -15.11638   -4.20848    1.61957
       H   -11.76293   -4.92744   -3.72954
       O   -11.43468   -5.11922   -2.85526
      H1   -11.75277   -4.33298   -2.31649
       H   -11.99620   -2.98613    1.18961
       O   -11.88120   -2.03237    1.14664
      H1   -12.66490   -1.66369    1.57777
       H   -19.44232   -0.51827    0.66767
       O   -19.08765   -1.40132    0.51685
      H1   -18.08576   -1.27270    0.54548
       H   -16.11645   -2.59120   -2.62067
       O   -16.49053   -2.59512   -1.72398
      H1   -17.47541   -2.61002   -1.94794
       H   -14.12508   -7.09847   -3.56089
       O   -13.70178   -7.15059   -2.69026
      H1   -12.73440   -7.22798   -2.81187
       H   -17.61080   -5.38501    1.58513
       O   -17.28214   -6.08062    2.23134
      H1   -16.46672   -5.73030    2.63112
       H   -13.17122    0.10634   -1.99999
       O   -13.88445   -0.62343   -2.16402
      H1   -13.49880   -1.33055   -1.65017
       H   -14.94467   -5.51789   -0.36590
       O   -14.72808   -4.56889   -0.23738
      H1   -15.56284   -4.10979   -0.44221

