54
frame 3 | Written by MDAnalysis XYZWriter (release 2.4.3)
       H     8.11934   16.15219    2.44867
       O     7.55546   16.47617    3.15263
      H1     7.07213   15.77812    3.45861
       H    10.24362   18.47396    1.51217
       O    11.10460   18.60245    1.93948
      H1    10.91884   19.26303    2.62470
       H    13.70585   17.83536   -1.69105
       O    13.77171   18.75851   -2.09152
      H1    13.50177   18.64231   -2.98643
       H    12.29815   16.92528    2.58963
       O    12.05632   16.02676    2.82270
      H1    12.02425   15.98579    3.81269
       H     5.15036   15.31361   -3.10547
       O     5.40031   16.12796   -2.56635
      H1     5.81365   16.68633   -3.26623
       H    10.34749   18.54519   -1.70620
       O    10.76823   19.10116   -2.41590
      H1    11.68383   19.03409   -2.24419
       H     2.99082   17.14981   -1.18712
       O     2.89711   17.11522   -2.17494
      H1     3.76628   16.69294   -2.46499
       H     4.44392   14.49781    1.35310
       O     4.66759   15.26783    0.79002
      H1     4.55087   16.09987    1.40273
       H     7.61078   14.76542   -1.25679
       O     8.56134   14.54869   -1.07187
      H1     8.99040   15.25362   -0.58097
       H     6.08994   18.40218   -2.05765
       O     5.87866   19.28658   -1.64454
      H1     4.95959   19.34764   -2.06662
       H    11.59306   15.35823   -2.18668
       O    11.81296   16.01960   -1.52502
      H1    11.23049   15.93336   -0.75288
       H     6.35290   19.45435    0.22382
       O     6.43618   19.03236    1.08877
      H1     7.03065   19.56600    1.63969
       H     5.49238   18.08989   -5.02236
       O     6.36547   17.82422   -4.63571
      H1     6.91533   17.62517   -5.40321
       H     8.12782   18.06791    0.02846
       O     8.79958   18.70931   -0.26961
      H1     8.20174   19.43894   -0.59466
       H     4.97127   18.44751    1.68871
       O     4.14289   18.02286    2.02467
      H1     3.53430   18.22029    1.30851
       H    10.40189   18.05381   -4.04139
       O    10.22877   17.59037   -4.85243
      H1     9.49908   18.00460   -5.41232
       H    10.43935   16.05197    1.81587
       O     9.69934   15.82230    1.21176
      H1     9.41369   14.96348    1.58810
       H     5.13228   18.51251    4.37136
       O     6.01919   18.53245    4.75070
      H1     6.47287   17.71265    4.48314

