54
frame 3 | Written by MDAnalysis XYZWriter (release 2.4.3)
       H    17.85651   16.10555  -12.56346
       O    17.41131   16.59486  -11.79647
      H1    17.00822   15.84769  -11.35283
       H    13.43010   12.47778  -11.43358
       O    13.95217   12.95101  -12.12969
      H1    13.68811   13.86858  -12.05297
       H    16.06502   12.99611   -9.40941
       O    15.82358   12.20661   -8.93616
      H1    16.57968   11.97078   -8.31137
       H    12.92317   15.98018   -8.76429
       O    13.36553   15.68466   -9.54996
      H1    12.98151   15.92360  -10.39453
       H    10.57364   13.49965  -11.26917
       O    10.26027   13.64347  -12.14970
      H1    10.10087   12.76952  -12.56083
       H    11.40333   16.74015   -6.54796
       O    12.35120   16.47320   -6.72972
      H1    12.34335   15.49222   -6.66356
       H     9.39929   14.86571   -8.10323
       O     9.09983   15.74910   -8.09436
      H1     9.54911   16.29953   -8.77152
       H    15.99022   18.14750  -11.98710
       O    15.81586   19.09600  -11.94848
      H1    14.86091   19.12804  -11.81053
       H    14.30058   12.11310  -15.05363
       O    13.63565   12.72779  -14.86224
      H1    13.76901   12.85752  -13.91825
       H    16.37306   18.65465   -9.94000
       O    16.75859   18.94402   -9.04526
      H1    16.91969   18.12656   -8.52807
       H    12.84271   19.88418  -10.56045
       O    13.24032   19.29180  -11.22489
      H1    12.93296   19.49656  -12.12647
       H     9.63298   12.68384   -6.95703
       O    10.26316   13.00912   -7.60032
      H1    11.06787   13.26985   -7.06489
       H    14.77684   15.55175  -14.38822
       O    14.27057   16.34555  -14.23458
      H1    13.88155   16.32568  -15.07657
       H    15.41308   15.51422   -9.72515
       O    16.25085   15.12107   -9.68073
      H1    16.55849   15.45254   -8.82164
       H    13.54065   19.32257  -14.45715
       O    12.66378   19.35533  -13.95924
      H1    12.16216   18.50391  -14.20279
       H    15.02674   12.56910   -6.06758
       O    14.86037   13.30278   -6.66457
      H1    14.99571   12.94893   -7.54612
       H    11.47034   17.82307  -10.06469
       O    10.62474   17.59734   -9.63028
      H1    10.07780   18.29213  -10.04570
       H    11.75449   15.09776  -12.49601
       O    12.62536   15.38696  -12.30949
      H1    13.02796   15.54701  -13.18832

