54
frame 3 | Written by MDAnalysis XYZWriter (release 2.4.3)
       H    16.69976    8.30398   -6.13573
       O    16.44401    8.86398   -6.90030
      H1    15.53404    9.16550   -6.75060
       H    17.71774   14.63698   -5.38727
       O    16.76357   14.64098   -5.30466
      H1    16.29973   14.46927   -6.15983
       H    18.17087   16.77950   -7.66659
       O    17.22810   16.81043   -7.53885
      H1    17.18058   16.47158   -6.64309
       H    14.89633   10.74740   -4.96715
       O    15.58448   11.43536   -4.82485
      H1    15.36183   11.96763   -4.06193
       H    15.90893   10.61430   -9.88021
       O    15.81749    9.83970  -10.46374
      H1    14.89685    9.70799  -10.35690
       H    16.06502   12.99611   -9.40941
       O    15.82358   12.20661   -8.93616
      H1    16.57968   11.97078   -8.31137
       H    18.03794   11.92740   -3.70253
       O    17.79202   11.08407   -3.36963
      H1    16.92641   10.87056   -3.81350
       H    12.92317   15.98018   -8.76429
       O    13.36553   15.68466   -9.54996
      H1    12.98151   15.92360  -10.39453
       H    11.40333   16.74015   -6.54796
       O    12.35120   16.47320   -6.72972
      H1    12.34335   15.49222   -6.66356
       H    18.28484   11.45300   -6.72106
       O    18.09625   10.93633   -7.47060
      H1    17.61380   10.14055   -7.13488
       H     9.63298   12.68384   -6.95703
       O    10.26316   13.00912   -7.60032
      H1    11.06787   13.26985   -7.06489
       H    16.08986   12.72962   -1.81082
       O    15.33800   12.79420   -2.40933
      H1    15.16076   13.73372   -2.52302
       H    18.65936   11.97770   -9.26119
       O    18.72023   12.35576  -10.13479
      H1    18.96417   13.24432  -10.03498
       H    15.41308   15.51422   -9.72515
       O    16.25085   15.12107   -9.68073
      H1    16.55849   15.45254   -8.82164
       H    15.02674   12.56910   -6.06758
       O    14.86037   13.30278   -6.66457
      H1    14.99571   12.94893   -7.54612
       H    13.01208    9.76469   -6.65450
       O    13.89357    9.51578   -6.40181
      H1    13.72452    8.63980   -5.91178
       H    14.93365   16.27115   -4.28724
       O    15.64984   16.37350   -3.68644
      H1    16.35464   15.77464   -4.03866
       H    13.35055   13.63565   -6.22819
       O    12.40880   13.79865   -6.00406
      H1    12.35014   13.79128   -5.06125

