54
frame 3 | Written by MDAnalysis XYZWriter (release 2.4.3)
       H   -10.23946   16.86955   -8.58805
       O    -9.81652   17.22028   -9.34888
      H1    -9.06687   17.72852   -9.03848
       H   -14.45383   12.10878   -5.44468
       O   -14.64447   12.83017   -6.08233
      H1   -13.80306   13.13646   -6.45024
       H   -13.29914   17.29926   -4.33146
       O   -13.09890   17.94338   -3.62632
      H1   -12.43856   17.50702   -3.05719
       H   -10.75287   16.93608   -6.17419
       O   -11.13022   16.39143   -6.92260
      H1   -12.07650   16.60496   -6.98147
       H   -10.41179   18.78862   -5.15367
       O   -10.16831   17.93344   -4.81261
      H1    -9.29090   17.81927   -5.20647
       H   -14.42540   16.87355  -11.65640
       O   -14.37137   16.23953  -10.89331
      H1   -14.98099   15.55655  -11.18238
       H   -11.37166   12.59150   -4.02886
       O   -11.58916   13.44730   -3.62156
      H1   -12.28238   13.30810   -2.97033
       H   -10.56830   17.67899   -3.15639
       O   -10.73773   17.59546   -2.18542
      H1   -10.48852   18.50956   -1.89714
       H    -8.11674   16.26849   -7.23282
       O    -7.97320   17.10508   -6.75611
      H1    -7.19260   16.89873   -6.26489
       H   -14.37531   16.41500   -6.92259
       O   -13.93125   16.47116   -6.06651
      H1   -13.40345   15.64805   -5.94052
       H    -9.76864   11.10563   -7.38421
       O    -9.73931   12.04445   -7.02428
      H1   -10.52886   12.46407   -7.30866
       H   -15.67484   19.29764   -9.35312
       O   -15.83684   19.40999   -8.40061
      H1   -15.01127   19.75272   -7.99363
       H   -11.87674   13.79943   -8.42104
       O   -11.83659   13.79615   -7.45530
      H1   -11.47179   14.66156   -7.13695
       H   -16.66711   17.98490   -5.31021
       O   -15.82932   18.08271   -4.88268
      H1   -15.18777   17.39449   -5.25640
       H   -16.11519   17.40126   -8.22661
       O   -15.72913   16.51950   -8.42214
      H1   -15.49670   16.56756   -9.33744
       H    -7.70698   14.18291   -8.84046
       O    -7.97746   14.29909   -7.89620
      H1    -8.53661   13.47346   -7.80286
       H   -10.93949   20.04586  -11.27821
       O   -11.15229   19.60966  -10.43042
      H1   -10.72142   18.69713  -10.39335
       H    -9.91043   15.45948  -11.88164
       O    -9.44244   15.04863  -11.19623
      H1    -9.30784   15.74056  -10.53922

