54
frame 3 | Written by MDAnalysis XYZWriter (release 2.4.3)
       H   -18.63884   -0.40365   -5.34703
       O   -18.64347    0.55571   -5.35171
      H1   -18.09469    0.72436   -4.55167
       H   -14.22267    2.10581   -5.59909
       O   -13.42593    1.67501   -5.23481
      H1   -12.86867    1.48554   -5.95055
       H   -13.58817    5.27763   -2.18865
       O   -13.80711    5.79417   -2.98590
      H1   -13.80533    6.74509   -2.74844
       H   -19.55849    4.90681    2.16402
       O   -18.67079    4.49128    2.08525
      H1   -18.74964    3.76473    1.41877
       H   -11.30144    1.93377    0.94968
       O   -12.24242    2.24018    0.83390
      H1   -12.56924    1.74175    0.06612
       H   -16.24024   -1.10616   -0.19635
       O   -16.51833   -0.79340    0.64012
      H1   -15.74219   -1.05560    1.16584
       H   -17.23852    4.36650   -4.18005
       O   -16.61797    4.05601   -3.51954
      H1   -15.78779    4.42895   -3.81791
       H   -14.76678    1.87495    1.95178
       O   -15.45859    2.37476    1.53235
      H1   -15.52642    2.08675    0.61634
       H   -11.07519    1.03846   -1.55924
       O   -11.94328    1.33179   -1.76662
      H1   -11.92756    2.08099   -2.38580
       H   -18.87494    4.75083   -1.36001
       O   -18.13236    4.21393   -1.13878
      H1   -17.67555    4.09157   -1.99897
       H   -17.60515    4.10823    3.32742
       O   -16.87355    3.51738    3.68072
      H1   -16.46567    3.12514    2.86669
       H   -12.99349    3.64193   -0.13176
       O   -13.43762    4.29740   -0.71408
      H1   -14.11108    4.74162   -0.17615
       H   -12.30427    3.08587   -4.20778
       O   -11.88475    3.59903   -3.48659
      H1   -12.37323    4.38700   -3.31776
       H   -13.17122    0.10634   -1.99999
       O   -13.88445   -0.62343   -2.16402
      H1   -13.49880   -1.33055   -1.65017
       H   -14.98052    1.21685   -1.38486
       O   -15.63050    1.87397   -1.11050
      H1   -15.44614    2.72459   -1.56716
       H   -18.24115    2.31409   -0.24840
       O   -18.41730    2.02505    0.67967
      H1   -17.69716    1.44451    0.85598
       H   -15.76572    1.08664   -3.31834
       O   -16.14074    0.52705   -3.97763
      H1   -16.29975   -0.22416   -3.44998
       H   -15.82254    4.16210    1.01242
       O   -16.00156    4.99261    0.53821
      H1   -16.87731    4.86073    0.12119

