54
frame 4 | Written by MDAnalysis XYZWriter (release 2.4.3)
       H     0.86440  -10.58904  -10.95521
       O     1.07585   -9.97887  -11.68622
      H1     0.31593   -9.93472  -12.26041
       H    -1.78794  -11.95524  -17.39614
       O    -1.07541  -12.66021  -17.32532
      H1    -0.91941  -12.94527  -18.23000
       H     5.10886  -12.18151  -14.93450
       O     5.28947  -12.80671  -15.64296
      H1     5.46200  -13.58586  -15.11643
       H     1.05203   -9.94590  -16.22889
       O     0.57638   -9.10389  -16.13204
      H1     1.26770   -8.56563  -15.79733
       H     0.48562  -15.07899  -13.83383
       O     0.85135  -15.60033  -14.56415
      H1     0.28561  -16.39711  -14.55203
       H     1.54178  -15.48673  -16.49443
       O     2.08791  -15.61252  -17.29366
      H1     2.78648  -14.93120  -17.40958
       H    -2.48258  -13.63652  -17.31033
       O    -3.32242  -14.10925  -17.51316
      H1    -3.16871  -15.07500  -17.32990
       H     1.84548  -12.30361  -15.69600
       O     1.43271  -11.76120  -16.32290
      H1     0.61290  -12.26255  -16.46535
       H     0.34206  -13.98948  -11.44211
       O     0.05374  -14.24514  -12.35471
      H1    -0.34884  -13.51302  -12.83957
       H     4.14111  -16.06344  -14.36801
       O     3.42790  -16.55857  -13.87241
      H1     2.55105  -16.13510  -14.10413
       H     4.43875   -8.40681  -16.44139
       O     5.06836   -8.17677  -17.10279
      H1     5.23803   -7.18673  -17.19608
       H     3.52561  -12.80626  -18.59927
       O     4.03930  -13.47265  -18.07604
      H1     4.52706  -13.10032  -17.36101
       H     2.32626  -11.90233  -18.07736
       O     2.29214  -11.83935  -19.06279
      H1     2.08032  -10.89105  -19.31570
       H     5.07486  -10.02132  -13.42215
       O     4.55924  -10.61440  -13.98762
      H1     3.88712  -10.96650  -13.35148
       H     3.73522   -7.76589  -14.67790
       O     3.34682   -8.56761  -15.11449
      H1     3.75299   -9.28185  -14.63015
       H    -1.70158  -12.93020  -14.73043
       O    -1.21655  -12.53230  -14.00764
      H1    -1.91551  -12.33286  -13.39025
       H    -0.73057  -10.72139  -14.05775
       O    -0.47502   -9.81686  -13.86948
      H1     0.06327   -9.51292  -14.60221
       H     2.06457  -13.05577  -12.24717
       O     2.76399  -12.45486  -11.92389
      H1     2.45392  -11.50569  -12.02714

