54
frame 0 | Written by MDAnalysis XYZWriter (release 2.4.3)
       H    10.69073   11.35837  -13.49230
       O    10.88361   12.09306  -14.03018
      H1    11.80878   12.37546  -13.65297
       H    12.05520   17.46901  -15.40269
       O    12.14002   16.56281  -15.80594
      H1    11.28969   16.14033  -15.52860
       H     9.19171   17.38706  -12.87713
       O     8.98508   16.47154  -12.96047
      H1     9.79878   16.00392  -12.88133
       H     7.71219   18.17585  -17.68858
       O     7.12720   18.77362  -18.18261
      H1     7.77240   19.50919  -18.42814
       H     5.39097   15.35508  -16.57471
       O     6.30968   15.18178  -16.40392
      H1     6.40300   14.83584  -15.51232
       H     9.21069   19.31656  -15.00743
       O     9.88408   18.73746  -14.57499
      H1     9.62418   17.79134  -14.70980
       H     8.18353   10.57089  -16.82892
       O     8.93289   10.27070  -16.29200
      H1     9.72084   10.72560  -16.61605
       H     8.99182   14.86623  -15.20090
       O     9.69270   15.28847  -15.73481
      H1     9.18426   15.80617  -16.40759
       H     8.81743   16.59319  -18.75515
       O     9.04113   16.89364  -17.85870
      H1     9.90691   17.33096  -18.03321
       H     6.94722   14.17603  -17.73376
       O     7.33393   13.62025  -18.42456
      H1     8.19208   13.34996  -18.03465
       H    10.13510   13.64146  -18.79340
       O    10.06520   13.34998  -17.84637
      H1    10.06619   14.10484  -17.26056
       H    11.88979   17.37983  -17.28371
       O    11.63863   17.88297  -18.11076
      H1    11.53000   18.79718  -17.75352
       H     8.80263   10.18656  -14.62569
       O     8.92042    9.91093  -13.65974
      H1     8.36566   10.50804  -13.09266
       H     6.52598   11.89286  -17.82481
       O     6.52926   10.97740  -17.43460
      H1     6.34576   10.36570  -18.13416
       H    12.79304   11.37120  -18.02382
       O    12.79044   11.24717  -19.01315
      H1    13.62429   10.75523  -19.18520
       H    11.30495   12.26476  -17.24389
       O    11.72936   11.71141  -16.60464
      H1    11.29958   11.95190  -15.73781
       H     7.90861   13.83792  -13.35017
       O     7.80197   13.47742  -14.26492
      H1     8.59458   12.95529  -14.49710
       H    14.69238   14.37639  -17.84823
       O    15.54753   14.09186  -17.48684
      H1    16.12453   14.41408  -18.16212

