54
frame 3 | Written by MDAnalysis XYZWriter (release 2.4.3)
       H   -14.22272  -11.42338   10.19433
       O   -14.07727  -12.05917    9.44812
      H1   -14.53793  -11.68192    8.68563
       H   -12.12452  -14.71842   14.61642
       O   -12.39641  -15.61853   14.48218
      H1   -13.31494  -15.57360   14.20875
       H   -16.91545  -10.61109   11.97677
       O   -16.63006  -11.53879   11.96620
      H1   -17.42690  -12.02457   12.09903
       H   -17.85911  -15.78492   11.22624
       O   -17.25503  -15.71427   12.00359
      H1   -16.74744  -14.93560   11.85785
       H   -11.12538  -14.11962    9.32299
       O   -10.95501  -14.63164   10.13993
      H1   -11.09855  -15.53372   10.06963
       H   -14.48185  -13.92330    9.75909
       O   -15.28013  -14.50597    9.86870
      H1   -14.87223  -15.18995   10.44511
       H   -13.46044  -12.10939   13.23561
       O   -14.13073  -11.54220   13.60179
      H1   -14.91866  -11.53487   13.05911
       H   -11.62644  -17.67070   12.47121
       O   -11.67134  -18.26151   13.26226
      H1   -11.86231  -17.74918   14.05804
       H   -14.73016  -15.49646   12.72626
       O   -14.55285  -14.67717   13.22945
      H1   -15.19765  -14.39246   13.85816
       H   -12.81316  -18.29271    7.25024
       O   -13.05801  -18.02406    8.13872
      H1   -13.41895  -18.81031    8.66217
       H   -11.62912  -13.45455   11.53552
       O   -12.19658  -13.14210   12.28263
      H1   -12.75450  -13.92851   12.43920
       H   -17.08645  -13.41505    9.17302
       O   -17.49347  -12.54335    9.29222
      H1   -16.89916  -12.08866    9.94709
       H   -19.16252  -17.03271    9.84461
       O   -19.08741  -16.11547    9.57152
      H1   -19.96048  -15.73219    9.72848
       H   -14.46734  -16.84980    7.90745
       O   -15.21706  -16.33701    7.51350
      H1   -15.46680  -15.65275    8.12644
       H   -12.80176  -12.84428    8.20967
       O   -12.12147  -13.18557    7.65319
      H1   -12.51894  -13.88544    7.09855
       H   -13.77999  -14.51719    5.19185
       O   -13.34571  -15.23522    5.65199
      H1   -14.05572  -15.63199    6.09947
       H   -10.83726  -17.93084   10.38023
       O   -11.58159  -17.32670   10.34913
      H1   -12.08933  -17.49139    9.56266
       H   -15.71757  -16.64852   11.66689
       O   -14.77928  -16.78327   11.66549
      H1   -14.54154  -17.76024   11.73461

