54
frame 3 | Written by MDAnalysis XYZWriter (release 2.4.3)
       H    -6.35726   14.77673  -15.32967
       O    -5.80440   14.73239  -16.13549
      H1    -5.66204   15.62302  -16.50914
       H    -2.78800   17.00951  -13.05958
       O    -2.57052   17.68889  -13.66115
      H1    -2.67269   17.40717  -14.63423
       H    -4.21536   18.64030  -13.21632
       O    -5.18265   18.59891  -13.25674
      H1    -5.61501   19.27578  -12.65081
       H    -5.30120   17.47329  -17.95036
       O    -4.52892   16.89916  -17.74733
      H1    -4.37529   16.25895  -18.50988
       H    -2.05189   18.65650  -16.82660
       O    -2.36070   17.88662  -16.29973
      H1    -2.98417   17.35762  -16.84199
       H   -11.73463   15.68906  -13.71519
       O   -11.01561   15.03792  -13.55852
      H1   -10.67875   14.92480  -14.46046
       H    -7.11232   17.37512  -18.48175
       O    -7.05719   18.16883  -17.94153
      H1    -7.25951   18.94565  -18.50337
       H    -9.20471   18.52870  -12.59201
       O    -8.67059   18.32134  -11.79680
      H1    -8.19375   17.50167  -12.03060
       H    -6.30722   16.55361  -11.32664
       O    -6.79976   16.40388  -12.12906
      H1    -6.32973   17.06972  -12.63136
       H    -8.25998   17.67155  -16.34504
       O    -8.47391   17.09101  -15.58249
      H1    -8.77994   17.76616  -14.97014
       H   -11.93014   16.00110  -18.14607
       O   -11.37511   16.33875  -17.41674
      H1   -10.86056   15.59626  -17.10218
       H    -8.89816   15.22142  -15.30512
       O    -9.47587   14.53239  -15.70775
      H1    -9.10187   13.72924  -15.25490
       H    -6.95985   12.79594  -18.64691
       O    -6.38053   12.57255  -17.82199
      H1    -6.46132   13.34149  -17.24495
       H   -10.38888   16.53208  -18.75984
       O    -9.97041   16.71128  -19.58569
      H1   -10.24720   17.64351  -19.74034
       H   -12.24575   17.24545  -15.80376
       O   -12.24633   17.52096  -14.86708
      H1   -13.13172   17.58113  -14.47728
       H   -10.94687   18.46846  -14.27104
       O   -10.08506   18.88898  -14.09859
      H1   -10.23165   19.78644  -13.75016
       H    -9.90075   19.26292  -15.80216
       O    -9.97448   19.75706  -16.63848
      H1   -10.28551   19.09777  -17.24078
       H    -5.58192   14.41382  -19.80581
       O    -4.70786   14.05157  -19.58101
      H1    -4.96582   13.60926  -18.74231

