54
frame 5 | Written by MDAnalysis XYZWriter (release 2.4.3)
       H    -1.90918  -17.84689  -11.21929
       O    -2.53174  -17.40076  -10.66458
      H1    -2.60192  -16.50017  -10.98654
       H    -3.84458  -20.03980  -13.71656
       O    -4.10968  -19.09844  -13.84366
      H1    -4.65775  -18.98697  -13.06952
       H    -7.17959  -16.60754  -13.95399
       O    -7.48489  -16.95425  -13.13673
      H1    -6.76938  -17.58646  -12.89444
       H    -0.91488  -19.47771   -6.38905
       O    -0.00667  -19.21465   -6.61804
      H1    -0.01316  -18.30897   -6.90492
       H    -2.97012  -17.39190  -13.72828
       O    -2.52870  -16.53890  -13.89439
      H1    -1.86854  -16.41995  -13.22340
       H    -6.83014  -15.55290  -12.26030
       O    -6.84181  -14.73496  -11.72123
      H1    -6.05994  -14.27162  -11.97570
       H    -4.69227  -15.65746  -14.61777
       O    -5.62577  -15.77973  -14.64422
      H1    -6.02042  -15.07830  -15.15163
       H    -5.49758  -16.04151   -7.06286
       O    -6.22386  -16.57746   -7.50355
      H1    -6.73684  -15.86196   -7.95599
       H     0.42316  -15.90953  -12.65191
       O    -0.26172  -16.58773  -12.45660
      H1     0.13145  -16.93503  -11.59850
       H    -5.61444  -18.50764  -10.97821
       O    -6.02546  -18.79691  -11.91161
      H1    -6.66407  -19.48755  -11.62499
       H    -3.77001  -14.60367  -12.20220
       O    -3.26418  -14.70869  -11.30813
      H1    -3.66702  -14.21204  -10.57589
       H    -2.67232  -15.53951   -6.42662
       O    -1.89596  -16.14947   -6.26824
      H1    -1.26458  -16.02106   -7.03495
       H    -3.46493  -12.48084   -8.39272
       O    -4.05777  -13.15573   -8.68216
      H1    -4.74823  -12.65713   -9.07607
       H     1.11135  -18.33744  -10.48598
       O     0.35797  -18.24930   -9.87615
      H1     0.08377  -19.13204   -9.67597
       H    -2.48912  -11.59593  -11.57971
       O    -1.80733  -12.31765  -11.58144
      H1    -2.32996  -13.12042  -11.43624
       H     1.27565  -16.74658   -7.24672
       O     0.38798  -16.68507   -7.72686
      H1     0.41109  -17.36557   -8.39624
       H     2.57523  -14.89038   -9.78273
       O     1.76053  -14.90314  -10.28463
      H1     1.16413  -15.22173   -9.57866
       H    -4.24321  -17.79812   -9.88511
       O    -5.02305  -18.13372   -9.46357
      H1    -5.37334  -17.49900   -8.82721

