54
frame 4 | Written by MDAnalysis XYZWriter (release 2.4.3)
       H    -4.71651    3.60650   16.93692
       O    -3.80809    3.38973   17.28799
      H1    -3.30442    4.16914   16.98056
       H    -3.54906   13.23172   19.24083
       O    -2.61508   12.95369   19.07638
      H1    -2.83606   11.97195   19.24584
       H    -8.62669    9.79589   18.49056
       O    -8.40204   10.41112   19.15605
      H1    -8.25054    9.94914   20.03574
       H    -3.71978    6.04668   18.86540
       O    -3.84541    5.18839   19.28091
      H1    -3.69640    4.49217   18.56519
       H    -1.89257    9.84317   12.57141
       O    -2.28228    8.99438   12.81675
      H1    -2.21443    8.99979   13.78639
       H    -9.12186    8.78171   16.00529
       O    -8.77460    7.88901   15.94936
      H1    -9.37044    7.41389   15.29552
       H    -7.28281    7.57688   14.82886
       O    -6.52103    7.26208   14.31875
      H1    -5.91190    7.32737   15.10661
       H    -8.32861    7.40894   17.64383
       O    -7.72507    7.27845   18.36615
      H1    -7.14370    6.56069   18.12651
       H    -0.86463    6.65640   18.97420
       O    -0.56577    7.11033   18.19249
      H1    -0.50768    8.05319   18.27058
       H    -1.52524    5.30479   15.89193
       O    -2.14595    5.58347   16.57517
      H1    -1.55687    6.12043   17.17687
       H    -6.41524    9.16161   14.04087
       O    -6.35776   10.04863   13.62602
      H1    -5.43454   10.38864   13.73430
       H    -2.44071   10.35329   15.72934
       O    -2.49807    9.38212   15.73211
      H1    -1.79944    9.10061   16.29782
       H    -1.74888   12.71799   15.49025
       O    -2.46869   12.21299   15.87570
      H1    -3.12713   12.80436   16.20579
       H     0.62188    9.49679   17.26790
       O    -0.19222    9.90791   17.59443
      H1    -0.06620   10.91485   17.61225
       H    -6.85982    3.20923   17.82357
       O    -6.46597    3.59427   17.02286
      H1    -6.78531    3.08856   16.27775
       H    -6.67861   10.71520   18.38713
       O    -5.81334   10.57238   17.91360
      H1    -5.65525   11.37848   17.47219
       H    -5.64029    8.98210   16.95190
       O    -5.16957    8.35108   16.44767
      H1    -4.35233    8.77783   16.13022
       H    -4.21464    7.84146   17.94705
       O    -3.78707    7.82979   18.78855
      H1    -4.56488    7.88510   19.32049

