54
frame 4 | Written by MDAnalysis XYZWriter (release 2.4.3)
       H   -11.36436   -6.99090   17.84625
       O   -12.30956   -7.02987   18.09750
      H1   -12.49517   -6.45931   18.85681
       H   -11.02651   -9.85321   17.46799
       O   -11.68936  -10.31193   17.93156
      H1   -12.25472   -9.59741   18.24825
       H   -13.54314  -11.27689   15.47123
       O   -12.94588  -11.74715   16.09038
      H1   -12.48445  -11.20031   16.72488
       H   -12.02139  -14.39088   18.40302
       O   -11.53808  -13.59801   18.20708
      H1   -11.79011  -12.98819   18.87526
       H   -14.14392  -12.80286   16.97990
       O   -14.85882  -13.26800   17.49551
      H1   -14.92463  -14.03025   16.88547
       H   -17.07182   -8.46588   13.85343
       O   -16.95777   -8.88882   14.69449
      H1   -16.14485   -9.39178   14.61988
       H   -15.07407  -12.91484   12.69071
       O   -15.34771  -11.98061   12.74469
      H1   -16.19449  -11.77777   12.32074
       H   -18.03585   -5.64986   18.11705
       O   -17.16057   -5.16028   17.99590
      H1   -16.82945   -4.96813   18.88195
       H   -18.40055   -9.24691   15.93913
       O   -19.05103   -8.86998   16.56810
      H1   -19.50294   -9.65508   16.87434
       H   -15.06273   -7.24141   19.46015
       O   -15.81525   -7.56730   18.96419
      H1   -16.19476   -6.72762   18.67413
       H   -13.51044   -6.20949   16.93249
       O   -13.90743   -5.55907   16.39587
      H1   -14.79590   -5.67527   16.09830
       H   -16.45569   -7.36346   15.37833
       O   -16.36393   -6.39671   15.53971
      H1   -16.71520   -6.21882   16.37210
       H   -16.28767  -10.56865   17.84787
       O   -16.15897  -10.22677   18.77225
      H1   -16.08077   -9.22090   18.72809
       H   -17.00850  -15.38826   18.71803
       O   -17.29490  -16.31385   18.45788
      H1   -18.24490  -16.30699   18.21249
       H   -16.30837  -12.60285   16.48316
       O   -16.97635  -11.93520   16.24916
      H1   -17.21526  -12.21153   15.35413
       H   -19.08377   -7.61864   17.66373
       O   -19.20553   -6.84225   18.19183
      H1   -20.14027   -6.58974   17.98078
       H   -16.71024  -14.98263   15.40965
       O   -15.75931  -15.11678   15.35193
      H1   -15.57719  -16.03750   15.55177
       H   -14.91719  -10.79784   13.83690
       O   -14.61180  -10.20034   14.56359
      H1   -13.99065   -9.52514   14.32098

