54
frame 0 | Written by MDAnalysis XYZWriter (release 2.4.3)
       H    17.41082  -11.03003  -16.76850
       O    18.20588  -11.35105  -16.38638
      H1    18.64027  -10.65868  -15.80820
       H    16.61298   -6.99065  -19.55786
       O    17.27551   -7.42319  -18.98276
      H1    16.80389   -7.55248  -18.12658
       H    15.93054  -14.05180  -15.60417
       O    15.97551  -13.16268  -15.97501
      H1    16.79375  -12.75110  -15.65961
       H    14.42175   -6.58303  -12.73779
       O    14.65644   -5.83719  -13.25980
      H1    13.91407   -5.32582  -13.46189
       H    15.83989   -2.37958  -17.31148
       O    15.03704   -2.31987  -16.73525
      H1    14.61131   -3.18436  -16.86030
       H    14.26424   -6.20127  -18.64578
       O    14.63432   -6.72005  -19.40433
      H1    14.97854   -6.00054  -19.95630
       H    11.67139   -8.55528  -16.95175
       O    12.31828   -9.29802  -17.05953
      H1    12.57472   -9.23254  -18.00150
       H    17.91532  -14.82566  -19.28935
       O    18.81118  -14.52030  -19.37085
      H1    18.83435  -13.57558  -19.46946
       H    15.88821  -13.72188  -18.32455
       O    15.85916  -14.49954  -18.86855
      H1    15.52703  -15.17633  -18.27529
       H    15.09145  -11.42314  -18.47685
       O    15.99730  -11.15449  -18.40728
      H1    16.23723  -10.49606  -19.10489
       H    16.89598   -2.97516  -19.21218
       O    17.26407   -2.29604  -18.74995
      H1    18.16357   -2.51052  -18.51572
       H    19.68105   -7.48063  -12.52320
       O    19.88889   -6.78213  -13.18490
      H1    19.39778   -6.00193  -12.88052
       H    14.81138  -10.03885  -14.88958
       O    14.76048  -10.35942  -13.95997
      H1    14.39339  -11.22631  -14.12549
       H    13.99363   -8.78340  -16.50925
       O    14.78691   -8.68858  -16.09410
      H1    15.16337   -7.79446  -16.23387
       H    16.39558   -6.03404  -15.39685
       O    16.41814   -6.42142  -16.28530
      H1    17.34151   -6.74716  -16.23053
       H    18.88458  -11.81828  -18.20686
       O    18.94513  -11.74252  -19.15033
      H1    19.86401  -11.74957  -19.33427
       H    13.12173   -3.83781  -17.26965
       O    13.70470   -4.55109  -16.94898
      H1    13.57312   -4.58166  -15.99667
       H    19.43892   -6.54269  -16.07567
       O    19.03502   -7.39653  -16.23964
      H1    19.45269   -7.85514  -17.02123

