54
frame 0 | Written by MDAnalysis XYZWriter (release 2.4.3)
       H   -15.18382   12.21431    2.03245
       O   -16.14373   12.48009    1.90134
      H1   -16.04709   13.18157    1.27351
       H   -16.69225   12.00384   -1.98552
       O   -15.98213   11.38096   -2.12205
      H1   -15.68091   11.34448   -3.07379
       H   -17.66813    9.20392   -5.94227
       O   -17.73197    9.76093   -5.15099
      H1   -17.64575    9.19060   -4.37402
       H   -19.89042   12.13186    1.07297
       O   -19.76398   13.03058    0.71810
      H1   -19.16776   13.48108    1.31825
       H   -18.93975   16.60353   -5.37960
       O   -18.55855   17.40689   -5.77493
      H1   -19.22722   18.06822   -5.40734
       H   -16.11832   18.45906   -0.73175
       O   -16.64262   17.68044   -0.95091
      H1   -16.56549   17.54285   -1.91353
       H   -15.72178   15.31190    0.60660
       O   -16.58391   14.90540    0.86033
      H1   -17.20531   15.18036    0.22041
       H   -15.79206   13.76457   -2.81437
       O   -14.97472   14.11248   -3.22854
      H1   -14.29554   13.78989   -2.58413
       H   -15.61876   12.42616   -4.84416
       O   -15.41824   11.44780   -4.81667
      H1   -16.29395   11.04679   -4.93870
       H   -12.31017   14.73503   -4.83664
       O   -12.47231   15.24377   -3.99392
      H1   -13.23782   14.84246   -3.53111
       H   -16.89454   15.92771   -3.68755
       O   -17.05317   16.82326   -3.54445
      H1   -17.48186   17.08853   -4.37327
       H   -18.50118   12.80733   -2.45704
       O   -17.85818   13.42924   -2.82005
      H1   -18.17823   14.23158   -2.33736
       H   -14.86069   15.36890   -6.85834
       O   -15.24686   14.48574   -6.84375
      H1   -14.63511   13.92927   -6.39258
       H   -18.87722   14.04970   -6.94292
       O   -18.44135   13.57906   -6.24749
      H1   -17.63835   13.24668   -6.70634
       H   -12.57467   13.60541   -0.66653
       O   -13.53514   13.65763   -0.81081
      H1   -13.80921   14.58655   -0.71370
       H   -18.36636   10.46026   -1.17253
       O   -18.92087   11.15167   -1.47808
      H1   -18.98446   11.86598   -0.83525
       H   -18.82017   16.55983   -0.59080
       O   -18.71044   15.56687   -0.69244
      H1   -19.45764   15.14192   -0.28873
       H   -16.90492    9.49710   -0.02371
       O   -16.38757    9.13464   -0.75301
      H1   -16.20811    9.89364   -1.39371

