54
frame 5 | Written by MDAnalysis XYZWriter (release 2.4.3)
       H   -16.51632    6.32000    9.25756
       O   -16.62270    6.66544   10.14451
      H1   -17.60337    6.63127   10.38903
       H   -16.10602    4.81203    6.71242
       O   -15.50830    4.07896    6.95565
      H1   -15.22757    4.12281    7.89250
       H   -13.37202    3.56533   12.79918
       O   -12.93242    2.88202   12.33256
      H1   -12.25074    2.41710   12.82788
       H   -17.29853    2.65182    7.23326
       O   -17.97790    2.17860    7.70854
      H1   -18.43288    2.71636    8.34552
       H   -15.54812    3.94688   10.23893
       O   -14.93516    4.04571    9.46600
      H1   -14.57644    3.16429    9.43099
       H   -16.36418   -2.84956   12.05247
       O   -16.44588   -2.01811   11.56613
      H1   -17.40417   -1.91297   11.45953
       H   -18.00052    2.50051   14.31279
       O   -17.81441    3.41041   14.06474
      H1   -17.15175    3.34064   13.40996
       H   -16.15542    1.47246   12.58620
       O   -16.41951    2.03514   11.86954
      H1   -16.81642    1.51147   11.19955
       H   -17.99257    0.78331    8.99397
       O   -17.94481    0.21065    9.78513
      H1   -17.77259   -0.69946    9.42540
       H   -13.48181    2.02807   10.77167
       O   -13.56341    1.53106    9.90530
      H1   -13.49242    0.63691   10.13273
       H   -16.36303   -0.75132   12.77769
       O   -16.14808   -0.17346   13.55984
      H1   -16.00034   -0.82934   14.25557
       H   -17.73433   -1.81268    7.92307
       O   -17.19049   -2.22972    8.61477
      H1   -16.26577   -2.25274    8.28161
       H   -13.84844   -1.12945    9.00585
       O   -13.37284   -1.13939    8.18942
      H1   -12.77282   -1.91965    8.28863
       H   -13.20454   -1.54676   11.73664
       O   -13.82017   -1.30523   11.04470
      H1   -14.72863   -1.42078   11.39137
       H   -19.69564   -1.15837   11.94718
       O   -19.06536   -1.85412   12.14659
      H1   -19.22530   -1.94749   13.10443
       H   -11.68366    1.81544   10.46934
       O   -10.83389    1.34252   10.70877
      H1   -10.86024    1.04680   11.61435
       H   -15.82003    4.80180   16.47907
       O   -15.56045    4.23647   15.74590
      H1   -16.32208    3.98702   15.18589
       H   -17.71229    1.25461   15.77564
       O   -18.23104    0.90537   15.03415
      H1   -17.57432    0.44963   14.47055

