54
frame 4 | Written by MDAnalysis XYZWriter (release 2.4.3)
       H     3.45347   -3.23142   14.01784
       O     3.89962   -4.11455   13.88599
      H1     3.27282   -4.77894   14.13893
       H     1.02967   -7.55774   13.65896
       O     1.62839   -7.22763   14.34274
      H1     2.49662   -7.38699   13.97661
       H    -0.33388   -8.72332   12.31049
       O     0.22628   -8.00855   12.11002
      H1     0.92941   -8.36538   11.44292
       H    -1.18689   -7.63016   14.66883
       O    -1.06943   -8.29071   15.38047
      H1    -0.87355   -9.16212   15.05423
       H     5.02490  -10.07674   14.42851
       O     5.21878   -9.80948   13.50411
      H1     4.78233  -10.36960   12.89004
       H    -0.19892  -11.01036   13.79726
       O     0.68649  -11.27307   13.60356
      H1     0.99066  -11.69822   14.41226
       H     3.67340   -6.32552    9.94888
       O     2.78235   -6.44401    9.68928
      H1     2.28705   -5.86264   10.34043
       H     3.88642   -9.87300   16.23468
       O     4.56396  -10.55060   16.04408
      H1     5.19547  -10.48538   16.82740
       H     4.40475   -4.75607   12.35441
       O     4.83224   -5.29851   11.65647
      H1     5.74865   -5.35062   11.97592
       H     2.31520   -9.84513   10.68791
       O     1.90673   -9.11246   10.24532
      H1     2.64320   -8.75498    9.69699
       H     4.81387   -6.97473   13.13171
       O     4.32569   -7.32913   13.88796
      H1     4.56079   -8.28623   13.82012
       H     4.34383   -7.49683   18.79803
       O     3.93820   -6.78249   18.24707
      H1     4.36870   -6.79817   17.41552
       H     0.82771   -4.42039   13.23873
       O     0.68658   -4.75422   14.11796
      H1     1.00146   -5.66108   14.21725
       H    -0.39780   -5.86166   17.12619
       O    -0.00429   -6.75886   17.29478
      H1    -0.42544   -7.36150   16.68969
       H     0.28689   -5.59799   11.49487
       O     0.98036   -4.86162   11.35184
      H1     0.60103   -4.29995   10.63215
       H     5.69956   -6.67073   15.07427
       O     5.86353   -6.32371   15.96068
      H1     6.06531   -5.33964   15.79129
       H     1.71115   -5.44960   17.19546
       O     2.09763   -4.73256   16.73332
      H1     1.65809   -4.64021   15.88067
       H     1.95995   -8.11837   15.84160
       O     2.35603   -8.61686   16.58407
      H1     2.59347   -7.96188   17.26629

