54
frame 0 | Written by MDAnalysis XYZWriter (release 2.4.3)
       H    -5.51197   -8.80408    5.63032
       O    -6.10040   -8.15842    5.24421
      H1    -6.87330   -8.66249    5.05066
       H    -7.64857   -9.06462    9.17356
       O    -8.63460   -8.96743    9.26155
      H1    -8.89016   -9.86621    9.36881
       H    -6.74579  -13.62325    6.46300
       O    -6.75737  -12.75679    6.04413
      H1    -7.67470  -12.42927    6.08814
       H   -10.53733  -11.22140    9.50559
       O    -9.72928  -11.49899    9.14550
      H1    -9.84332  -11.04228    8.26695
       H    -8.16917  -11.80755   10.59523
       O    -7.46616  -11.95151   11.27793
      H1    -7.59440  -11.41892   12.10428
       H    -6.80873   -6.78044   11.35909
       O    -6.35876   -6.06508   10.92118
      H1    -6.01321   -6.51679   10.13806
       H    -1.74497   -9.77862   10.15797
       O    -1.23008   -8.94157   10.37032
      H1    -0.33136   -9.24838   10.16116
       H    -5.24659  -10.19080    7.17995
       O    -4.98513  -10.47687    6.28647
      H1    -5.47140  -11.34726    6.26180
       H    -3.91283   -6.72848    7.48408
       O    -3.75443   -7.35148    8.15057
      H1    -3.28274   -8.05764    7.76543
       H    -3.65307   -9.91368   11.31394
       O    -3.31295  -10.80030   11.08978
      H1    -4.00377  -11.36773   10.65798
       H    -3.09450  -11.79048   12.31479
       O    -3.03539  -12.44174   13.09407
      H1    -3.57157  -13.22682   12.87570
       H    -3.79828   -8.31339   12.43515
       O    -3.89011   -8.06078   11.49692
      H1    -3.08596   -7.76174   11.21724
       H    -0.59478  -11.85915    8.03858
       O    -1.40281  -12.00882    8.59362
      H1    -1.95200  -12.63822    8.14829
       H    -3.29071  -10.23072    6.66393
       O    -2.39556   -9.97522    6.94915
      H1    -2.25943  -10.55905    7.71132
       H    -8.22261   -8.26306   10.77581
       O    -8.21730   -7.84924   11.64579
      H1    -8.65001   -6.97597   11.56551
       H    -4.86558   -8.63499    8.73018
       O    -5.62724   -9.23744    8.71257
      H1    -5.29484  -10.09190    9.05681
       H    -3.69686  -14.54815    8.39244
       O    -4.33504  -14.24717    7.73614
      H1    -4.02419  -14.60944    6.88608
       H    -5.94672  -11.93084   10.31706
       O    -5.31706  -11.96902    9.49145
      H1    -5.36520  -12.80473    9.02628

