54
frame 5 | Written by MDAnalysis XYZWriter (release 2.4.3)
       H    14.00858    5.30506   17.92845
       O    13.32477    5.10982   17.24280
      H1    13.55489    5.84277   16.67376
       H    10.63615    6.74411   18.74336
       O    11.00627    6.18217   19.45258
      H1    11.06015    5.39832   18.97004
       H    11.25463    8.45662   17.39767
       O    10.29443    8.32945   17.56593
      H1    10.09472    8.46968   18.55786
       H    11.80176    4.29029   17.90562
       O    10.84659    4.11164   17.77628
      H1    10.71961    3.26493   18.18432
       H    10.03406    9.43964   13.86360
       O    10.38632    9.65000   12.99407
      H1     9.86236    9.09210   12.40082
       H    12.05140    7.23795   14.63587
       O    11.48338    7.13962   13.85974
      H1    11.49814    8.03839   13.42617
       H    14.03867   10.05818   11.90014
       O    13.28060   10.40934   12.40335
      H1    12.49302   10.08290   12.05841
       H     9.48762    8.47609   16.03216
       O     8.95405    8.91120   15.36173
      H1     8.69026    8.15310   14.79153
       H    14.57532    6.48592   19.58697
       O    15.23371    6.15806   18.91439
      H1    15.62582    6.93895   18.49162
       H    14.64727   11.26649   14.91755
       O    14.14585   10.42211   14.98989
      H1    13.59734   10.32020   14.20392
       H    17.44802   12.05601   17.25372
       O    16.85659   11.28818   17.17402
      H1    16.37686   11.46203   16.34937
       H    12.82452    6.07872   13.20964
       O    13.49552    5.62435   12.67970
      H1    14.06451    5.12264   13.32709
       H    17.99873    7.36055   14.73674
       O    18.85009    7.35573   15.20011
      H1    18.84268    7.63915   16.11322
       H    16.17509    8.67184   14.52761
       O    16.49803    7.93043   14.03247
      H1    16.21947    7.97859   13.10712
       H    15.49762    5.28741   15.63201
       O    16.11660    5.21000   16.35457
      H1    15.69487    5.05949   17.19739
       H    14.63030    7.27016   15.02510
       O    13.70798    7.16177   15.36502
      H1    13.63408    7.85449   16.06639
       H    16.65553    9.84779   17.99998
       O    16.38683    8.97729   18.40525
      H1    16.65211    9.12880   19.32871
       H    13.32053    9.66480   16.74791
       O    13.04118    8.91109   17.31031
      H1    13.64704    8.86949   18.07247

