54
frame 4 | Written by MDAnalysis XYZWriter (release 2.4.3)
       H     8.99794   -1.58653   -0.58750
       O     8.47513   -2.25656   -1.01400
      H1     9.11552   -2.99176   -1.17162
       H    11.73496   -1.98249    0.03945
       O    11.65942   -2.10233   -0.96491
      H1    12.54283   -2.12559   -1.28691
       H    13.07414   -5.04824    3.93908
       O    13.79696   -5.25087    4.67174
      H1    14.47967   -5.73427    4.20194
       H     6.76197   -5.41303    2.56188
       O     7.43467   -5.09358    1.89448
      H1     6.94078   -4.47387    1.32332
       H    10.70506   -3.88242    6.87364
       O    11.63366   -4.24009    6.79878
      H1    11.82313   -4.13621    5.86748
       H    10.24092   -1.85151    3.44638
       O     9.85948   -1.95453    4.31586
      H1     8.89538   -1.76536    4.24082
       H    11.93914   -3.94383   -0.56647
       O    11.68908   -4.89664   -0.46132
      H1    12.30606   -5.40243   -1.08846
       H    12.13977   -1.96220    2.29713
       O    11.39168   -2.06539    1.70227
      H1    11.18590   -3.01984    1.97644
       H     8.58219    0.07879    1.91050
       O     8.02873    0.27117    2.70249
      H1     8.46817    0.99501    3.10262
       H    15.89711   -3.82992    0.33304
       O    14.91090   -3.84829    0.25141
      H1    14.84787   -3.45317   -0.65107
       H    11.62531   -5.14811    2.24143
       O    11.59026   -4.52220    2.98383
      H1    10.74509   -4.68674    3.47472
       H     8.42554   -5.42724    4.02343
       O     9.23010   -5.16858    4.46003
      H1     9.65712   -5.97885    4.48911
       H    13.72550   -1.77903    4.49794
       O    13.23818   -1.41769    3.72211
      H1    13.01151   -0.48348    3.87333
       H    14.58342   -6.78222    1.16853
       O    14.08759   -6.16766    1.76445
      H1    14.24533   -5.36182    1.22502
       H     9.82538   -4.50214   -2.92894
       O    10.07230   -3.61097   -2.95835
      H1    10.80243   -3.44536   -2.31869
       H    14.97807   -1.98709    0.90136
       O    14.62893   -1.19278    1.27694
      H1    14.33639   -1.41760    2.14070
       H    11.05878   -0.20278    4.77949
       O    11.54382    0.68139    4.67230
      H1    11.31446    0.91193    3.75048
       H     9.24057    0.95558   -0.29439
       O     9.37766    0.29150    0.38187
      H1    10.08592    0.60294    0.92542

