54
frame 5 | Written by MDAnalysis XYZWriter (release 2.4.3)
       H     9.53192   18.27628   11.83937
       O     8.79702   17.60975   11.70378
      H1     8.55944   17.46253   12.61691
       H    11.19062   19.38644   15.58330
       O    11.16063   18.52930   15.12792
      H1    12.09827   18.24953   15.09609
       H    10.28674   13.38640   17.27656
       O     9.66666   13.47847   17.98705
      H1    10.22197   13.86221   18.62164
       H    12.05710   13.33001   16.42468
       O    12.64014   13.70681   17.07673
      H1    13.08032   12.97073   17.44490
       H     5.71906   17.55290   12.28065
       O     5.58444   16.76383   12.79544
      H1     5.71916   16.11265   12.08009
       H     6.97698   16.25835   13.82379
       O     7.77893   15.98829   14.36356
      H1     7.84241   14.98760   14.18220
       H    10.81297   14.20581   15.18350
       O    10.69824   13.21376   15.24582
      H1    11.24898   12.91009   14.48869
       H    12.23165   19.26933   17.94689
       O    12.36918   18.37403   18.11496
      H1    11.45070   18.04826   18.20443
       H     9.05048   13.14075   14.32891
       O     8.23991   13.31228   13.75510
      H1     7.53830   12.85813   14.27661
       H     7.58063   14.36234   18.11499
       O     6.81414   14.67594   18.57677
      H1     6.67516   13.96041   19.21724
       H     8.82741   12.54948   12.21210
       O     9.32890   12.01075   11.62797
      H1     9.92441   11.48861   12.26187
       H     7.97929   17.34095   19.15983
       O     7.02327   17.38203   19.08030
      H1     6.77841   16.42754   18.94271
       H     7.20960   17.47640   15.80335
       O     7.49437   18.08686   16.46478
      H1     6.92442   17.88416   17.26585
       H     9.98297   16.44025   17.25436
       O     9.79793   17.03666   17.99060
      H1     9.15611   17.59402   17.58193
       H    13.06619   16.40169   12.71453
       O    12.84861   17.08949   12.09517
      H1    13.62757   17.15194   11.52142
       H    14.09250   16.21269   14.88979
       O    13.89723   17.09172   15.27488
      H1    13.90732   16.92167   16.24068
       H    11.97310   13.31486   12.23668
       O    12.37249   12.98405   13.04957
      H1    12.78998   12.21358   12.71542
       H     9.27953   15.87660   15.23572
       O    10.19066   15.88296   15.63466
      H1    10.59865   16.77805   15.48281

