54
frame 6 | Written by MDAnalysis XYZWriter (release 2.4.3)
       H   -16.71293    7.18434   10.17900
       O   -16.19561    7.52403   10.95603
      H1   -16.89826    7.70294   11.56560
       H   -16.86445    5.12475    7.68506
       O   -16.23913    4.51695    7.24356
      H1   -15.45910    4.75276    7.79689
       H   -16.71895    2.89265    7.48630
       O   -17.26782    2.20253    7.88932
      H1   -17.97265    2.69522    8.37579
       H   -13.70653    9.92711    6.54965
       O   -13.17601    9.44575    7.22853
      H1   -13.83317    9.18965    7.90612
       H   -13.97148    3.09559   10.30434
       O   -13.59045    3.33006    9.41115
      H1   -13.11061    2.56824    9.09444
       H   -15.44298    8.84627    9.80637
       O   -15.28240    9.58244    9.19310
      H1   -15.01792   10.28079    9.81184
       H   -16.75838    9.63660    8.11211
       O   -17.59278    9.38222    7.71371
      H1   -17.86213   10.06071    7.04010
       H   -14.97186    4.11255    4.28081
       O   -14.61823    4.03019    5.17779
      H1   -15.36311    4.36872    5.70756
       H   -14.90948    2.37006   12.27171
       O   -15.36019    2.78536   11.57791
      H1   -15.54389    1.90242   11.04382
       H   -16.57805    1.28563    9.18382
       O   -16.34911    0.70827    9.97461
      H1   -16.50061   -0.23112    9.60946
       H   -11.39234    6.70555    7.63695
       O   -11.51578    6.37618    6.71666
      H1   -12.41823    6.59026    6.40761
       H   -18.54174    6.92558    3.10579
       O   -18.65724    7.72632    3.63973
      H1   -17.75413    7.92867    3.99160
       H   -14.58578    5.00105    2.49240
       O   -15.39388    4.49798    2.63440
      H1   -15.27154    3.89762    1.89258
       H   -17.42761    7.46478    7.91438
       O   -17.52600    6.66194    8.48182
      H1   -18.49533    6.54006    8.29224
       H   -14.21975    5.68174    5.76226
       O   -14.12593    6.62334    5.97907
      H1   -13.99331    6.72134    6.91994
       H   -15.72396    7.67772    5.12862
       O   -16.31699    8.30718    4.63170
      H1   -15.84589    8.23315    3.80853
       H   -19.08322    9.58476    8.70129
       O   -19.77272    9.27944    9.34329
      H1   -19.39614    9.31187   10.27583
       H   -13.77360    6.32967    9.56812
       O   -13.66415    5.87734    8.76860
      H1   -13.80073    4.92589    8.96114

