54
frame 6 | Written by MDAnalysis XYZWriter (release 2.4.3)
       H     1.94593    3.71241    2.02912
       O     1.66143    4.32071    2.74876
      H1     1.56670    5.13361    2.31578
       H     2.56574    3.59166    9.39571
       O     3.09014    4.06788   10.05586
      H1     3.86011    3.43447   10.23701
       H     0.02327    5.27256    4.40393
       O     0.40275    5.92047    5.03951
      H1     1.38244    5.80017    5.07309
       H     2.78571    6.40498    6.40142
       O     3.07520    6.15073    5.53136
      H1     3.82523    5.51599    5.75384
       H     5.91709    5.29870    5.16904
       O     5.38364    4.87664    5.87484
      H1     5.91595    5.01585    6.69247
       H     1.60721    9.20548    5.28758
       O     2.30213    9.31539    5.96839
      H1     2.26841   10.25455    6.12549
       H     0.68811    5.91926    9.48538
       O     0.08573    5.56971   10.11692
      H1    -0.02036    6.27700   10.77969
       H     3.68313    8.51323    2.76736
       O     2.97206    8.87438    2.20709
      H1     3.00226    9.86547    2.38517
       H     6.87128    6.53070    8.02249
       O     6.37541    5.72132    8.26333
      H1     5.67220    6.14235    8.77625
       H    -1.46482    5.74998    7.69816
       O    -1.28780    6.63269    7.35224
      H1    -0.58420    6.42111    6.66523
       H     0.84689    8.29055    9.27326
       O     0.53207    8.73809   10.09023
      H1     0.52997    8.21157   10.91019
       H    -0.67736    3.78390    6.90517
       O     0.03053    3.44969    6.36691
      H1     0.18629    4.15963    5.76337
       H     1.17336    3.05984    7.63177
       O     1.86677    2.62421    8.18835
      H1     2.68789    2.67641    7.70976
       H     2.79786    7.40394    8.40694
       O     2.02495    7.28720    7.80269
      H1     2.04345    8.00422    7.12811
       H     1.52879    8.43727    3.17551
       O     0.73115    8.53769    3.73524
      H1     0.58496    7.63106    3.99998
       H     3.53778    5.76873    9.54234
       O     4.03678    6.58760    9.47881
      H1     4.17888    7.08047   10.32139
       H     4.82420    2.05269    7.46351
       O     4.29054    2.61462    6.91942
      H1     4.91229    3.23051    6.44339
       H     4.12969    8.12866    4.68567
       O     4.69393    8.12652    3.89065
      H1     5.40075    7.44114    4.04742

