54
frame 0 | Written by MDAnalysis XYZWriter (release 2.4.3)
       H    11.68455    2.60044  -17.69130
       O    12.26720    2.09119  -18.23588
      H1    12.54434    1.31136  -17.69110
       H    13.76522   -0.67897  -17.06172
       O    13.66619    0.20783  -16.70774
      H1    14.58165    0.50820  -16.64150
       H    10.96143   -1.65812  -17.70223
       O    11.63546   -2.41285  -17.75681
      H1    11.21399   -3.28168  -18.02169
       H    11.84093   -3.80757  -14.48888
       O    12.58697   -4.39888  -14.23327
      H1    12.21281   -5.29520  -14.40163
       H    11.25138   -2.63836  -11.48894
       O    11.37005   -3.58100  -11.77080
      H1    12.02213   -3.70408  -12.41117
       H    12.62557   -0.07910  -13.75545
       O    12.02511    0.36525  -14.35828
      H1    12.59106    0.45924  -15.14985
       H    10.23776   -2.21432  -13.59312
       O    10.83523   -2.05771  -14.30966
      H1    11.12003   -1.10352  -14.34706
       H    14.23745   -0.59376  -10.78689
       O    13.80190   -0.97113   -9.97859
      H1    12.81664   -1.22619  -10.11840
       H     8.12222    0.60606  -16.11411
       O     8.63294    1.18841  -16.68243
      H1     7.99096    1.78769  -17.08056
       H    10.22214    0.02151  -19.09852
       O     9.77970   -0.46317  -18.38130
      H1     9.38385    0.15184  -17.77410
       H    14.81376    2.74567  -11.75617
       O    14.07547    2.08715  -11.70660
      H1    13.28080    2.57321  -11.98977
       H    10.77432   -1.12396   -9.38474
       O    11.09272   -1.29789  -10.29000
      H1    10.51131   -0.62268  -10.73864
       H     7.94699   -1.69995  -12.17012
       O     8.62043   -1.25442  -12.76236
      H1     8.80243   -0.45657  -12.26414
       H    14.61546    3.47778  -14.01319
       O    15.46826    3.17979  -14.36119
      H1    15.28276    2.53721  -15.04734
       H    10.01603    2.50498  -16.23620
       O    10.68068    3.20912  -16.02655
      H1    10.44184    3.92729  -16.64112
       H     9.22799    1.74229  -11.55484
       O     9.78489    0.98259  -11.78102
      H1    10.59146    1.31220  -12.16179
       H    14.89447   -0.61382  -13.41683
       O    14.20970   -0.35278  -12.77267
      H1    14.40033    0.58002  -12.49489
       H    11.62075    2.14258  -13.42894
       O    11.80225    2.82071  -12.76303
      H1    11.15202    3.49653  -12.97111

