54
frame 6 | Written by MDAnalysis XYZWriter (release 2.4.3)
       H   -15.39746   12.94204   18.54710
       O   -15.30293   12.17602   17.99018
      H1   -15.02134   11.45720   18.58035
       H   -13.84284   12.15799   16.34119
       O   -13.55093   11.48170   15.76358
      H1   -12.84180   12.04599   15.35197
       H   -13.78847   14.97888   17.32045
       O   -14.42082   15.14018   16.59536
      H1   -14.38969   16.14204   16.50545
       H   -12.20831   18.63717   16.91139
       O   -12.62380   17.75317   16.74551
      H1   -12.03377   17.04112   16.86854
       H   -15.62144   18.33985   16.53634
       O   -15.28507   17.82367   15.78838
      H1   -14.36209   17.87933   15.91811
       H   -11.55195   10.35119   17.63325
       O   -12.15397   10.93108   18.11207
      H1   -12.75642   11.13987   17.38534
       H   -13.58341    9.96041   18.91143
       O   -14.41165    9.87920   19.42035
      H1   -14.73011    8.92294   19.39198
       H   -14.66930   10.43331   14.86092
       O   -15.14402    9.81220   14.31597
      H1   -15.39714    9.04149   14.91886
       H   -13.15019   13.97809   13.84189
       O   -13.60898   14.84691   13.94212
      H1   -13.79831   14.79674   14.90270
       H   -16.92747   11.05547   14.67839
       O   -17.84197   11.02164   14.88067
      H1   -18.05299   11.35661   15.75193
       H   -18.38694    9.80584   18.28554
       O   -18.94274    8.99291   18.33712
      H1   -19.80503    9.30533   17.99304
       H   -17.55460   13.17101   12.73683
       O   -17.35704   13.58258   13.60464
      H1   -17.50425   12.83210   14.22813
       H   -13.60843   17.30523   18.83271
       O   -13.81683   16.69145   19.49346
      H1   -14.40071   17.02074   20.17180
       H   -12.02585   12.85877   18.34018
       O   -12.55425   13.65436   18.46588
      H1   -11.88008   14.33529   18.41396
       H   -16.18631   15.26502   16.86660
       O   -17.11379   15.35509   17.19030
      H1   -17.42893   16.15180   16.69940
       H   -18.54167   14.77189   14.29760
       O   -18.94261   15.64555   14.26452
      H1   -18.56357   16.06626   13.43746
       H   -16.98359   11.99769   18.13134
       O   -17.89542   11.73895   17.85182
      H1   -18.54149   12.34608   18.27089
       H   -14.87317   15.22699   19.17124
       O   -15.59654   14.58113   19.22447
      H1   -16.31048   15.02681   18.68879

