54
frame 5 | Written by MDAnalysis XYZWriter (release 2.4.3)
       H   -10.12768   -1.40265  -11.20298
       O   -10.30945   -0.54196  -11.60553
      H1   -10.99983   -0.56108  -12.24362
       H    -9.55593   -4.08680  -16.72569
       O    -9.72310   -4.96657  -17.16383
      H1    -9.94873   -4.59138  -18.04594
       H    -8.79752   -0.48134  -15.96187
       O    -9.74382   -0.61331  -15.90124
      H1    -9.94897   -0.72669  -16.84442
       H    -4.26818   -0.71048  -14.42464
       O    -4.95756   -1.41295  -14.56235
      H1    -5.36325   -1.63073  -13.66124
       H   -13.14916   -2.35277  -12.87520
       O   -12.33389   -2.01395  -13.31116
      H1   -12.58285   -1.28367  -13.88864
       H    -7.78719    0.75686  -12.77943
       O    -8.04808   -0.13486  -12.93601
      H1    -8.89520   -0.28718  -12.46428
       H    -7.62161   -2.97944  -17.49971
       O    -7.93533   -2.82056  -18.39976
      H1    -7.90727   -3.71838  -18.79828
       H    -6.50441   -2.50905  -11.79480
       O    -5.94370   -1.70672  -11.70345
      H1    -6.51720   -1.00980  -12.06635
       H    -9.55176   -2.26458  -14.99806
       O    -9.35926   -3.23020  -14.92995
      H1    -9.82483   -3.53391  -14.14248
       H    -9.51470   -2.21393  -18.45901
       O   -10.24229   -1.60248  -18.49996
      H1   -10.81245   -1.91143  -19.22449
       H   -10.38533    3.10659  -17.60920
       O    -9.76753    2.96795  -16.89141
      H1   -10.43310    2.49181  -16.33742
       H    -5.99252    0.79228  -17.29651
       O    -6.82798    1.24679  -17.62635
      H1    -6.91334    2.03583  -17.05974
       H   -10.54766    0.83485  -14.92080
       O   -11.11996    1.60733  -14.99191
      H1   -10.82236    2.17293  -14.24872
       H    -6.98034    4.59293  -16.23460
       O    -7.34676    3.82890  -15.78466
      H1    -8.15012    3.52661  -16.31756
       H   -11.88998   -1.80221  -17.46928
       O   -12.81452   -1.82901  -17.22688
      H1   -13.03288   -2.67423  -16.76897
       H   -12.84102   -0.67716  -15.64312
       O   -13.20106   -0.03545  -15.02599
      H1   -12.50475    0.67387  -15.02190
       H    -7.77763   -3.08201  -15.43443
       O    -6.92701   -2.81789  -15.89289
      H1    -6.30797   -2.28711  -15.31289
       H    -7.66395    2.78789  -12.30021
       O    -6.88056    2.23610  -12.50211
      H1    -6.70520    2.28733  -13.43840

