54
frame 6 | Written by MDAnalysis XYZWriter (release 2.4.3)
       H    -8.26508   -8.39872  -17.38598
       O    -8.61112   -8.86979  -18.16082
      H1    -8.05808   -8.63562  -18.89661
       H    -9.35682   -4.74452  -16.70148
       O    -9.51757   -5.39804  -17.38860
      H1    -9.56294   -5.05704  -18.28590
       H   -10.58234  -10.79474  -13.97459
       O   -11.10422  -11.25856  -14.58063
      H1   -10.55550  -11.96652  -14.97273
       H    -7.33484  -10.74975  -16.56330
       O    -7.23617  -10.80738  -15.62988
      H1    -8.00897  -10.45169  -15.22156
       H   -11.37254   -8.46995  -19.14478
       O   -10.69656   -7.82188  -19.33753
      H1    -9.91257   -8.19951  -18.83294
       H    -9.18694  -13.19446  -15.06095
       O    -9.65199  -12.98916  -15.88601
      H1    -8.91542  -12.61825  -16.44547
       H   -11.49306   -7.51473  -16.46283
       O   -11.60679   -6.63108  -16.14927
      H1   -10.89327   -6.07512  -16.54408
       H   -13.26113  -10.35222  -18.65036
       O   -12.36330  -10.03510  -18.75777
      H1   -11.76239  -10.77271  -18.95772
       H    -8.62925  -10.04441  -12.29412
       O    -9.39740   -9.75903  -12.79253
      H1   -10.05666   -9.33710  -12.23590
       H    -6.74078   -6.81605  -16.76189
       O    -7.48458   -7.12330  -16.25305
      H1    -8.18852   -6.52523  -16.63110
       H    -5.03943   -9.16575  -16.83356
       O    -4.45252   -9.17165  -16.05814
      H1    -4.91129   -8.93205  -15.25057
       H    -6.36468   -8.24732  -13.72255
       O    -5.46614   -8.49009  -13.56189
      H1    -4.84896   -7.71086  -13.61729
       H    -4.98725  -10.26993  -18.78491
       O    -5.58936   -9.59712  -18.44823
      H1    -5.92293   -9.12123  -19.21723
       H   -12.21871   -8.25756  -13.39975
       O   -12.33104   -7.29636  -13.48956
      H1   -12.03576   -7.18044  -14.43835
       H    -5.08381   -5.96018  -17.16404
       O    -5.45627   -6.34601  -17.92375
      H1    -4.98272   -7.15879  -18.02117
       H    -6.47339   -4.18187  -15.18956
       O    -6.49185   -4.94478  -14.54812
      H1    -6.83579   -5.72190  -14.96086
       H    -7.32945  -12.69084  -18.20016
       O    -8.12360  -12.13959  -18.12493
      H1    -7.78081  -11.22209  -18.27937
       H   -12.39093   -9.55920  -16.99262
       O   -12.42463   -9.45500  -16.00590
      H1   -11.94265  -10.29799  -15.69364

