54
frame 6 | Written by MDAnalysis XYZWriter (release 2.4.3)
       H   -17.85259   -2.88230  -12.18687
       O   -17.69136   -2.20719  -12.88908
      H1   -17.35652   -2.62533  -13.68529
       H   -16.35529   -5.88609  -13.88635
       O   -16.96555   -5.18773  -14.19215
      H1   -17.81168   -5.57267  -14.31372
       H   -15.99328   -2.52513  -12.54101
       O   -15.10946   -2.85036  -12.26860
      H1   -15.15726   -3.85198  -12.16827
       H   -14.15566  -10.65707  -13.09752
       O   -13.63617   -9.83664  -13.03966
      H1   -14.19787   -9.09781  -13.33915
       H   -19.35518   -3.95731  -11.03516
       O   -18.61960   -3.52876  -10.61320
      H1   -18.19063   -4.22198  -10.04660
       H   -16.16187   -7.37027  -16.92205
       O   -17.08579   -7.65213  -16.79495
      H1   -17.21622   -8.42680  -17.40292
       H   -15.08159   -7.42637  -14.77822
       O   -15.45566   -7.79394  -14.02334
      H1   -16.07484   -8.44598  -14.41989
       H   -16.32758   -4.82312  -18.34135
       O   -15.52989   -4.21500  -18.30401
      H1   -15.28129   -3.93009  -19.17190
       H   -19.63243   -7.54707  -13.47961
       O   -19.08411   -6.74858  -13.16700
      H1   -19.04499   -6.84376  -12.22055
       H   -18.74829   -6.35826   -8.65172
       O   -18.88813   -6.31765   -9.59464
      H1   -17.96719   -6.56506   -9.82931
       H   -14.43852   -5.43429  -16.94290
       O   -14.36549   -6.34158  -16.52719
      H1   -13.38422   -6.55220  -16.39672
       H   -12.21871   -8.25756  -13.39975
       O   -12.33104   -7.29636  -13.48956
      H1   -12.03576   -7.18044  -14.43835
       H   -16.66032   -3.89461  -15.60672
       O   -16.66125   -2.97841  -15.96706
      H1   -16.14887   -3.13140  -16.78286
       H   -18.43876   -5.09383  -17.90030
       O   -17.83224   -5.45286  -18.50112
      H1   -17.64376   -6.32901  -18.20353
       H   -15.95084   -7.73681  -10.21857
       O   -16.34945   -6.82626  -10.13700
      H1   -16.00210   -6.43494  -10.92784
       H   -14.83524   -3.11538  -15.97197
       O   -13.91986   -3.36328  -15.67678
      H1   -13.82686   -3.02527  -14.76629
       H   -17.77875  -10.13422  -14.13920
       O   -17.41423   -9.64493  -14.93303
      H1   -17.76321   -8.76331  -14.99765
       H   -14.30173   -6.10510  -12.78077
       O   -14.47392   -5.51263  -12.07678
      H1   -13.65825   -5.37359  -11.56805

