54
frame 6 | Written by MDAnalysis XYZWriter (release 2.4.3)
       H    -9.34890   -1.99427    2.31587
       O    -8.48248   -2.00419    2.70807
      H1    -8.24013   -1.07479    2.68617
       H    -9.06112    2.99493    6.15633
       O    -8.23964    2.76765    5.68452
      H1    -7.96145    1.93982    6.02561
       H    -2.82481    1.98396    4.38058
       O    -3.80160    1.91901    4.29817
      H1    -3.83460    1.24076    3.57998
       H   -11.48858   -0.61365    4.80272
       O   -10.68663   -0.09336    4.87110
      H1   -10.71809    0.45314    5.66140
       H    -4.36172    1.35479    1.34444
       O    -3.79956    0.66165    1.74714
      H1    -4.13739   -0.21137    1.31447
       H    -7.83185   -1.79368    5.85246
       O    -7.50444   -2.42244    5.20199
      H1    -7.76918   -2.15793    4.33264
       H    -7.89461    2.91209    3.89312
       O    -7.56571    3.10490    2.98231
      H1    -6.88553    3.72582    3.17687
       H    -7.63200    5.43312    9.41552
       O    -7.64783    4.72290    8.73694
      H1    -6.87746    4.84268    8.23838
       H   -10.46237    2.14741    7.56914
       O   -10.47995    1.25077    7.17579
      H1   -11.12313    0.71947    7.67173
       H    -5.82550   -1.77083    9.05657
       O    -5.56823   -2.61787    9.48965
      H1    -5.02500   -2.29561   10.22936
       H    -6.92564    0.49629    3.76984
       O    -7.11028    0.26079    2.86703
      H1    -7.16355    1.13976    2.40426
       H    -5.66592    0.35471    6.58908
       O    -5.77290    0.78490    5.70500
      H1    -4.99087    1.30755    5.48833
       H    -4.79772   -0.74773    5.20011
       O    -4.73232   -1.74720    5.06278
      H1    -5.71892   -1.93540    4.99080
       H    -9.30688   -0.16440    7.26304
       O    -8.77375   -0.90403    7.07101
      H1    -9.25378   -1.66072    6.87801
       H    -4.70642    4.94661    4.28530
       O    -4.16738    4.77883    5.06575
      H1    -4.21862    3.83235    5.10111
       H    -4.00816   -2.27973    3.70951
       O    -3.55496   -2.81118    2.94812
      H1    -4.03085   -2.39017    2.21385
       H    -7.30417   -0.29043    8.11321
       O    -6.37579   -0.26471    8.31603
      H1    -6.45353   -0.24727    9.30546
       H    -4.37900    2.03058    9.49243
       O    -3.46856    1.86511    9.71847
      H1    -3.42471    1.17708   10.42061

