54
frame 0 | Written by MDAnalysis XYZWriter (release 2.4.3)
       H    -6.89018  -16.80739   11.44504
       O    -5.94213  -16.73653   11.39164
      H1    -5.61387  -17.34342   10.75272
       H    -5.18912  -16.17514   14.63621
       O    -4.99292  -16.97221   14.20931
      H1    -5.03765  -16.62927   13.32666
       H    -0.31867  -12.12682   12.62242
       O    -0.15941  -12.40563   11.74005
      H1    -0.92630  -12.08253   11.13849
       H    -7.76875  -14.25564   15.99183
       O    -7.30436  -14.91811   15.44732
      H1    -7.30216  -14.68043   14.52384
       H    -8.16917  -11.80755   10.59523
       O    -7.46616  -11.95151   11.27793
      H1    -7.59440  -11.41892   12.10428
       H    -7.57701  -13.40168   12.33256
       O    -7.80627  -14.27145   12.83776
      H1    -8.28282  -14.84750   12.20771
       H    -2.28421  -16.03266   15.05410
       O    -2.54440  -16.89509   15.39640
      H1    -3.39573  -16.97579   14.89356
       H    -3.65307   -9.91368   11.31394
       O    -3.31295  -10.80030   11.08978
      H1    -4.00377  -11.36773   10.65798
       H    -3.09450  -11.79048   12.31479
       O    -3.03539  -12.44174   13.09407
      H1    -3.57157  -13.22682   12.87570
       H    -3.76615  -13.19975   15.81342
       O    -3.62166  -12.21804   15.77834
      H1    -3.50320  -11.97543   14.84194
       H    -2.67686  -16.41042    9.07166
       O    -2.64021  -15.46839    9.50062
      H1    -1.85446  -15.46254   10.07363
       H    -4.37453  -14.98520   11.49551
       O    -4.66976  -14.38141   12.19517
      H1    -5.53636  -14.61437   12.42331
       H    -1.80588  -13.73616   14.23636
       O    -1.56427  -14.65970   14.07684
      H1    -1.61161  -14.71341   13.15481
       H    -4.43355  -14.85800   16.91039
       O    -4.64578  -14.82948   15.95830
      H1    -5.61383  -14.61761   15.90097
       H    -3.69686  -14.54815    8.39244
       O    -4.33504  -14.24717    7.73614
      H1    -4.02419  -14.60944    6.88608
       H    -7.60285  -15.46104    7.08549
       O    -7.08880  -14.81667    7.59961
      H1    -6.15920  -15.07442    7.63365
       H    -5.94672  -11.93084   10.31706
       O    -5.31706  -11.96902    9.49145
      H1    -5.36520  -12.80473    9.02628
       H     0.23677  -15.45398   10.88048
       O    -0.54047  -15.01612   11.25474
      H1    -0.14355  -14.14244   11.40614

