54
frame 7 | Written by MDAnalysis XYZWriter (release 2.4.3)
       H    -8.47920   16.37474    8.71289
       O    -8.90555   16.19124    7.82427
      H1    -8.74952   16.87511    7.14513
       H    -4.97090   16.01113   13.84434
       O    -5.65164   16.60406   14.23643
      H1    -6.37496   16.30205   13.66236
       H    -6.75641   13.54229    7.56407
       O    -6.54055   14.15576    8.28954
      H1    -7.25220   14.80030    8.19812
       H    -3.46583   16.38091    8.09826
       O    -2.62364   16.32536    8.53206
      H1    -2.26170   15.38269    8.44265
       H    -8.45110   14.96447   12.73286
       O    -7.64571   14.86840   13.34636
      H1    -7.32686   13.99251   13.09795
       H    -5.46293   12.36966   13.08249
       O    -6.37997   12.36327   12.75661
      H1    -6.24996   12.45974   11.79429
       H    -7.01418   17.97474    6.81503
       O    -6.93038   18.30939    7.73982
      H1    -7.13658   19.20653    7.73661
       H    -1.34218   17.95642   11.85183
       O    -0.95831   17.61592   10.96307
      H1    -1.79751   17.27855   10.53949
       H    -3.87416   16.21600   11.75919
       O    -3.35938   16.33481   12.61278
      H1    -3.07212   17.24860   12.66487
       H    -2.04312   18.60955   13.97953
       O    -2.14645   18.80115   13.05427
      H1    -1.60711   19.60667   12.99258
       H    -4.45234   15.79376    9.80959
       O    -4.93401   16.03812   10.55232
      H1    -5.23845   16.95414   10.43423
       H    -7.67527   18.37306   11.62468
       O    -8.53407   18.84292   11.74986
      H1    -8.49645   19.54402   11.09907
       H    -0.96846   18.02271    6.30826
       O    -1.79907   18.27689    6.65996
      H1    -2.08222   17.48889    7.13826
       H    -6.81372   12.75294    9.46761
       O    -6.69535   11.89689    9.94010
      H1    -7.55745   11.44466   10.08983
       H    -5.05089   19.18522    9.60614
       O    -5.60938   18.51266   10.03024
      H1    -6.18063   18.19568    9.29366
       H    -7.00931   15.82356   10.54513
       O    -7.83008   16.29112   10.34600
      H1    -8.60646   15.85953   10.76985
       H    -5.40050   16.70781    6.60357
       O    -5.01286   15.90852    6.92630
      H1    -5.62067   15.38081    7.50174
       H    -1.97654   14.74905   14.78576
       O    -2.89115   14.92059   14.94424
      H1    -3.12245   15.57201   14.30954

