54
frame 6 | Written by MDAnalysis XYZWriter (release 2.4.3)
       H    19.97811  -17.70880   -3.98389
       O    19.36124  -17.24410   -4.51491
      H1    18.55213  -17.10198   -4.03826
       H    16.97648  -15.15542    0.55106
       O    17.38741  -14.33869    0.27570
      H1    17.23559  -14.24369   -0.68724
       H    13.48074  -15.94749   -2.20987
       O    12.96911  -16.08820   -2.98327
      H1    13.41614  -16.62460   -3.63074
       H    14.25779  -17.34105   -5.41470
       O    13.43481  -17.91141   -5.53779
      H1    12.69717  -17.38087   -5.85327
       H    14.68752  -12.65352    1.50073
       O    15.07321  -12.93223    0.67752
      H1    15.95969  -13.31908    0.76408
       H    19.03281  -18.95018    2.11457
       O    19.44866  -19.45992    2.81248
      H1    18.69529  -20.02087    3.00617
       H    15.57151  -16.15074   -6.44673
       O    15.88858  -16.87205   -5.89502
      H1    16.04392  -17.59439   -6.53311
       H    15.27528  -18.65227   -1.15254
       O    15.74423  -17.83065   -1.26328
      H1    15.79840  -17.44125   -0.35777
       H    13.67644  -13.68174   -0.18435
       O    12.82069  -13.83193   -0.59086
      H1    12.45762  -14.56998   -0.11148
       H    16.98706  -14.93828   -2.64556
       O    16.96819  -14.03809   -2.43733
      H1    16.20049  -13.63726   -2.86089
       H    15.99329  -15.83339    4.39476
       O    15.70493  -15.52097    3.50481
      H1    15.97880  -14.53469    3.52530
       H    11.19950  -18.71708   -2.20316
       O    10.82646  -17.87954   -1.84733
      H1    11.20225  -17.15409   -2.31771
       H    13.16846  -14.36041   -3.64938
       O    13.37385  -13.68489   -4.27970
      H1    14.18605  -13.19090   -4.02196
       H    11.72645  -16.92437   -0.62522
       O    11.70741  -16.28159    0.14198
      H1    10.72349  -16.15048    0.34643
       H    17.17427  -17.16632    1.27311
       O    16.23258  -16.79133    1.31801
      H1    16.13035  -16.37570    2.16167
       H    13.54480  -17.90272    2.96163
       O    14.32590  -18.30764    2.72889
      H1    14.85038  -17.73559    2.12075
       H    19.42564  -17.67921    0.10105
       O    18.59132  -17.85696    0.62389
      H1    18.21253  -18.68378    0.22052
       H    16.47935  -16.68766   -4.14350
       O    16.94296  -16.53023   -3.31930
      H1    16.49722  -17.14360   -2.64018

