54
frame 6 | Written by MDAnalysis XYZWriter (release 2.4.3)
       H    13.77704   -9.83299    1.06775
       O    13.33530   -9.40858    0.34090
      H1    12.62318  -10.11650    0.08178
       H    17.03255  -10.74085   -0.23485
       O    17.39291  -10.35725    0.60481
      H1    16.75380  -10.74909    1.17025
       H    14.68752  -12.65352    1.50073
       O    15.07321  -12.93223    0.67752
      H1    15.95969  -13.31908    0.76408
       H    16.20181  -11.57548   -4.15620
       O    15.49285  -12.11908   -3.72947
      H1    15.29062  -11.45810   -3.07693
       H    13.67644  -13.68174   -0.18435
       O    12.82069  -13.83193   -0.59086
      H1    12.45762  -14.56998   -0.11148
       H    14.48693   -9.77178   -1.23307
       O    15.06965   -9.84383   -2.00409
      H1    15.84743   -9.34696   -1.75019
       H    12.16854  -12.32236   -4.28599
       O    11.80208  -11.45206   -4.23414
      H1    11.11997  -11.40643   -4.90567
       H    11.67315   -7.97394   -0.30583
       O    11.09096   -7.22747   -0.37027
      H1    10.64255   -7.39984   -1.26280
       H    16.98706  -14.93828   -2.64556
       O    16.96819  -14.03809   -2.43733
      H1    16.20049  -13.63726   -2.86089
       H    12.67454   -9.63664   -4.12545
       O    13.19574   -8.89750   -3.72555
      H1    13.96786   -9.35427   -3.28337
       H    14.15854   -8.00780   -5.03046
       O    14.71016   -7.85340   -5.82325
      H1    14.80276   -6.88341   -5.83960
       H    15.96423   -6.48360    0.89273
       O    15.33681   -5.95062    1.31858
      H1    15.66448   -5.03757    1.23202
       H    13.16846  -14.36041   -3.64938
       O    13.37385  -13.68489   -4.27970
      H1    14.18605  -13.19090   -4.02196
       H    13.95984   -7.06117   -2.79736
       O    14.26773   -6.18124   -2.84923
      H1    13.52203   -5.76246   -3.27615
       H    16.14687   -8.66729   -5.23147
       O    16.96227   -9.09530   -4.86467
      H1    17.68209   -8.45498   -5.02864
       H    17.48537   -7.42608   -0.64645
       O    16.73669   -7.83286   -0.25719
      H1    16.97684   -8.70021    0.06569
       H    10.26885  -11.41961   -1.50380
       O    10.86815  -10.63727   -1.64577
      H1    11.42279  -10.90377   -2.39676
       H    18.84856  -11.41873   -3.18149
       O    19.18443  -11.04295   -2.28300
      H1    19.41548  -11.87041   -1.82447

