54
frame 6 | Written by MDAnalysis XYZWriter (release 2.4.3)
       H    -7.01507    2.64048   -4.42631
       O    -6.49677    2.59727   -3.59774
      H1    -6.98143    1.83985   -3.13144
       H    -9.34890   -1.99427    2.31587
       O    -8.48248   -2.00419    2.70807
      H1    -8.24013   -1.07479    2.68617
       H   -13.36609   -2.94742   -1.52971
       O   -12.50346   -3.13348   -1.86329
      H1   -11.97368   -3.08991   -1.09167
       H   -10.60142    0.40395    3.07178
       O   -10.53472    0.90835    2.26118
      H1   -10.32849    0.28122    1.58704
       H    -8.19851   -6.25122    0.32682
       O    -8.43242   -5.35588    0.53926
      H1    -7.97222   -5.07966    1.34128
       H    -4.28841   -1.35094   -0.15709
       O    -4.67407   -1.59872    0.66452
      H1    -5.64026   -1.48835    0.49931
       H    -7.60298   -0.02061   -3.23513
       O    -7.66827    0.56899   -2.46756
      H1    -7.36176    0.12185   -1.73698
       H   -10.63214    0.28365   -1.71465
       O   -11.13516    0.39243   -2.54964
      H1   -10.83736    1.20112   -2.99746
       H    -6.92564    0.49629    3.76984
       O    -7.11028    0.26079    2.86703
      H1    -7.16355    1.13976    2.40426
       H   -11.35873   -3.68740    1.13859
       O   -11.26074   -2.78624    0.79808
      H1   -12.04720   -2.28807    1.07495
       H    -7.34218   -2.43040   -0.31243
       O    -7.46237   -1.58352    0.09496
      H1    -7.62743   -1.76395    1.00515
       H    -6.17812   -4.73345    2.09363
       O    -7.00311   -4.55619    2.66120
      H1    -7.08502   -3.61285    2.83877
       H   -12.88615    1.09135   -0.17075
       O   -12.51247    1.65438    0.55672
      H1   -11.85667    1.12667    0.99552
       H   -12.96452    0.09934   -2.05637
       O   -13.74863    0.09380   -1.45722
      H1   -14.38597    0.65993   -1.93942
       H   -10.92876   -1.00459   -3.38526
       O   -10.74559   -1.86295   -3.90194
      H1   -11.06739   -2.54073   -3.28534
       H    -7.68110   -3.84762   -2.40930
       O    -7.37423   -3.71272   -1.50584
      H1    -7.73790   -4.51501   -1.07137
       H   -10.08327    3.21356   -0.26572
       O    -9.39884    2.64722   -0.49816
      H1    -9.03000    3.08570   -1.28220
       H    -9.11988   -0.81921   -0.00200
       O    -9.77533   -0.10472   -0.16852
      H1    -9.26412    0.72789   -0.22313

