54
frame 6 | Written by MDAnalysis XYZWriter (release 2.4.3)
       H    -7.29052  -11.47326  -10.36262
       O    -7.17206  -10.95983  -11.17512
      H1    -6.21839  -10.80736  -11.31349
       H    -8.34170  -12.32401  -12.48688
       O    -8.40074  -13.19400  -12.77940
      H1    -7.90914  -13.67885  -12.10410
       H    -6.93200  -15.82183  -11.60642
       O    -6.87275  -14.83269  -11.34041
      H1    -6.03640  -14.41320  -11.57058
       H   -10.36897  -12.56819  -10.60906
       O   -10.08130  -12.14165   -9.79736
      H1   -10.28739  -12.77445   -9.13263
       H   -10.61846  -14.76529   -7.76549
       O   -10.59458  -13.77671   -7.63289
      H1    -9.92367  -13.67127   -6.96188
       H    -5.62466  -16.32013   -7.50755
       O    -6.44339  -16.72245   -7.89831
      H1    -6.86680  -15.93649   -8.31165
       H    -4.18620  -11.05240   -3.45803
       O    -3.82757  -11.45108   -4.31615
      H1    -4.53012  -11.63503   -4.92610
       H    -4.77632  -13.12496  -13.28099
       O    -4.43126  -13.24794  -12.40156
      H1    -4.27545  -12.32724  -12.09801
       H    -8.62925  -10.04441  -12.29412
       O    -9.39740   -9.75903  -12.79253
      H1   -10.05666   -9.33710  -12.23590
       H    -7.40395   -9.16190  -10.20376
       O    -7.61808   -8.37808   -9.67843
      H1    -6.77719   -7.97621   -9.48939
       H   -10.15683  -10.32638   -6.63621
       O   -10.20489  -10.15569   -5.69907
      H1   -10.91169  -10.69330   -5.35571
       H    -4.53217  -14.55676   -7.77504
       O    -4.31400  -15.27772   -7.17738
      H1    -4.61864  -15.02295   -6.31440
       H    -8.03051  -10.38530   -4.72462
       O    -7.50139   -9.79532   -4.19678
      H1    -7.01043  -10.34804   -3.62124
       H    -3.51759  -12.25594   -8.44272
       O    -4.27369  -12.79074   -8.89661
      H1    -4.98749  -12.16317   -9.07440
       H    -7.35373  -14.45926   -9.56949
       O    -8.11168  -14.57398   -8.89866
      H1    -8.58240  -15.26537   -9.39998
       H    -6.46771  -12.76027   -5.13766
       O    -5.84935  -12.90776   -5.86002
      H1    -6.23449  -12.56747   -6.64299
       H    -8.62185   -9.46528   -8.69089
       O    -8.96157  -10.24982   -8.23655
      H1    -9.52094  -10.76245   -8.87380
       H    -7.33509  -12.87232   -8.50025
       O    -6.96821  -11.98309   -8.58885
      H1    -7.78412  -11.39007   -8.29184

