54
frame 8 | Written by MDAnalysis XYZWriter (release 2.4.3)
       H    17.37807  -18.87338  -12.48921
       O    17.17714  -18.06073  -12.95875
      H1    16.21348  -17.98629  -13.11908
       H    14.60521  -19.11617  -19.65127
       O    15.42257  -19.46946  -19.27676
      H1    16.19337  -18.95504  -19.57605
       H     9.77711  -20.29427  -15.42742
       O    10.11846  -19.76783  -14.76001
      H1    10.16587  -18.85953  -15.23964
       H    15.19807  -13.38841  -16.01702
       O    14.88745  -14.11797  -15.54339
      H1    15.52523  -14.41351  -14.88883
       H    12.58038  -16.68505  -15.64906
       O    12.56834  -17.20806  -16.42697
      H1    13.21147  -17.89845  -16.32833
       H    18.38872  -18.34168  -18.99912
       O    18.50990  -18.99924  -19.71874
      H1    19.47724  -18.95656  -20.03753
       H    17.37319  -16.15489  -14.08954
       O    16.96584  -15.29517  -13.95479
      H1    17.66105  -14.65112  -13.69611
       H    15.57449  -19.58574  -15.85186
       O    14.85977  -19.15882  -16.26767
      H1    14.98205  -19.37463  -17.18105
       H    14.03384  -12.70945  -19.45332
       O    14.53962  -12.23932  -18.76655
      H1    14.07100  -11.36350  -18.77616
       H    11.03456  -13.46966  -17.69070
       O    11.84977  -13.09759  -17.41898
      H1    12.57475  -13.64578  -17.69649
       H    12.02495  -17.04831  -19.45110
       O    11.20108  -17.24782  -19.00668
      H1    10.52187  -16.67558  -19.33163
       H    10.62310  -18.84134  -18.61470
       O    10.44629  -19.78911  -18.51597
      H1    11.14715  -20.13731  -19.07484
       H    18.11725  -16.36673  -17.93162
       O    18.38343  -17.24241  -17.64865
      H1    19.26747  -17.11489  -17.22825
       H    10.79085  -17.16879  -16.01915
       O     9.87382  -17.26502  -15.76494
      H1     9.40884  -17.09471  -16.57043
       H    17.17339  -15.03698  -20.03708
       O    17.52693  -14.99073  -19.17033
      H1    18.27873  -14.36251  -19.24480
       H    11.89280  -16.43338  -13.28099
       O    12.82102  -16.28320  -13.53113
      H1    13.00282  -15.31531  -13.55474
       H    18.28829  -11.80983  -18.93912
       O    18.19991  -11.81284  -19.91231
      H1    19.06771  -11.54524  -20.27061
       H    14.08259  -15.00711  -16.96378
       O    13.70343  -15.22101  -17.82658
      H1    13.14781  -15.98073  -17.51790

