54
frame 7 | Written by MDAnalysis XYZWriter (release 2.4.3)
       H    -1.18059  -11.31973  -12.06586
       O    -0.47911  -10.66938  -11.98469
      H1    -0.35570  -10.28334  -12.85510
       H     0.27173   -4.68458  -10.48051
       O    -0.13838   -3.85695  -10.61859
      H1    -0.76040   -3.69156   -9.86617
       H    -0.76386   -6.33522  -10.14047
       O    -1.63388   -6.73131   -9.89017
      H1    -2.30627   -6.04260  -10.11521
       H     0.92536   -6.97132  -10.94675
       O     0.95471   -6.22917  -10.33240
      H1     1.27201   -6.53962   -9.50034
       H    -4.90311  -10.13408  -12.84091
       O    -4.80776  -10.65222  -11.99607
      H1    -4.14223  -10.21141  -11.44596
       H    -2.22521   -4.55863  -15.09351
       O    -2.96282   -4.81186  -15.69378
      H1    -3.47122   -4.07188  -16.10836
       H    -3.42679   -9.37950  -17.27258
       O    -3.23422   -9.81859  -16.43510
      H1    -3.72089   -9.37015  -15.75315
       H     0.07721   -7.04977  -13.29502
       O     0.86567   -6.47963  -13.21869
      H1     1.51901   -6.90205  -13.81109
       H    -6.05560   -9.48665  -14.64812
       O    -5.17555   -9.33743  -14.35054
      H1    -5.04255   -8.39296  -14.07141
       H    -0.66111   -5.54621  -17.86865
       O    -0.99876   -4.69122  -17.55444
      H1    -1.72507   -4.82816  -16.95975
       H    -4.88567   -4.82573  -10.52501
       O    -4.52635   -5.64520  -10.80510
      H1    -4.78566   -5.76826  -11.73809
       H    -3.70899   -6.34147  -13.52872
       O    -4.65448   -6.49051  -13.39542
      H1    -5.23333   -5.97800  -13.98577
       H    -1.44784   -3.04323  -11.98687
       O    -1.74143   -2.68611  -12.81235
      H1    -1.26362   -3.32070  -13.43787
       H     1.53047   -7.54616  -16.57202
       O     0.89164   -7.15351  -15.96062
      H1     0.99553   -6.19957  -15.94115
       H    -2.79093   -8.11514   -9.96863
       O    -3.40952   -8.86884   -9.83186
      H1    -4.24922   -8.48189   -9.55133
       H    -2.07452   -7.39716  -12.23600
       O    -1.76250   -7.33126  -13.14627
      H1    -1.61834   -8.22493  -13.49189
       H    -0.15566   -4.86049  -13.81148
       O    -0.51119   -4.39635  -14.58674
      H1     0.28062   -4.09936  -15.06604
       H     0.70627   -9.95471  -14.84724
       O     0.32114   -9.31915  -14.25259
      H1     0.38244   -8.48756  -14.79852

