54
frame 8 | Written by MDAnalysis XYZWriter (release 2.4.3)
       H     8.78491   -1.24301   -0.50552
       O     8.57102   -2.14801   -0.81427
      H1     9.07394   -2.72467   -0.22965
       H     4.74479   -1.40804   -2.33328
       O     4.41498   -2.05716   -2.93229
      H1     5.08668   -2.79449   -2.84368
       H    10.21934    4.18200   -2.13080
       O    10.53966    5.06403   -2.26210
      H1    11.34519    5.15089   -1.70099
       H     6.74530    2.88769    0.59127
       O     6.48148    3.56289   -0.06305
      H1     5.49738    3.72910   -0.00487
       H     6.08823    6.25356   -3.00542
       O     5.72217    5.38941   -3.06892
      H1     5.13602    5.30724   -2.27184
       H     6.07495    0.49313   -1.20286
       O     5.47542   -0.29297   -1.07727
      H1     5.00851   -0.12265   -0.23798
       H     2.80384    2.85017   -2.96843
       O     2.92325    1.96451   -2.56611
      H1     2.87505    2.21861   -1.65768
       H     8.03852    1.06813    1.47479
       O     7.20163    1.31834    1.87414
      H1     7.42794    2.09358    2.45655
       H    10.62767    1.77362   -1.61076
       O     9.87996    2.34742   -1.28989
      H1     9.00118    1.99535   -1.50828
       H    12.80686    0.66884   -1.75005
       O    11.88616    0.53406   -2.05390
      H1    11.87502   -0.43759   -2.02325
       H     5.26487    0.69921   -4.73230
       O     4.42084    0.25924   -4.72190
      H1     4.03422    0.74778   -3.99614
       H     7.18341    2.06231   -2.83967
       O     7.19085    1.72982   -1.93143
      H1     6.96397    2.52415   -1.34021
       H     3.66312    5.13707    0.34538
       O     4.31475    5.16578   -0.35748
      H1     4.73684    6.01951   -0.16549
       H     9.33569   -0.95925   -3.68808
       O     9.29887   -1.91113   -3.58332
      H1     9.14671   -2.15262   -2.63423
       H     8.10907    3.39563   -5.00702
       O     7.24036    2.87975   -4.91700
      H1     6.65697    3.52538   -4.52542
       H     4.85736    0.85020    2.13859
       O     4.16117    0.36943    1.70806
      H1     3.56323    0.02811    2.43109
       H     7.89112    5.14241    0.58696
       O     8.13538    5.97780    1.01804
      H1     9.07860    5.89853    1.28075
       H     9.98294    0.73542   -0.04739
       O     9.49722    0.15728    0.54145
      H1    10.19407   -0.20941    1.09808

