54
frame 8 | Written by MDAnalysis XYZWriter (release 2.4.3)
       H     8.97857   -4.50944  -15.09047
       O     8.65622   -3.61804  -14.95020
      H1     7.75374   -3.59083  -14.60969
       H    14.67505   -1.32907  -15.22740
       O    14.25268   -0.58795  -14.75611
      H1    15.00313    0.02823  -14.41456
       H    14.58609   -6.10343  -19.46626
       O    14.88438   -6.79927  -18.84299
      H1    15.49612   -7.33953  -19.31474
       H    13.12018    1.22380  -17.43238
       O    13.76333    1.47044  -16.72761
      H1    13.80819    0.77493  -16.07434
       H     9.05324   -1.35724  -19.84643
       O     9.67843   -1.51271  -19.12753
      H1    10.30187   -2.20799  -19.36204
       H    10.11682   -0.83398  -17.57776
       O    10.54055   -0.42043  -16.81215
      H1    10.35736   -0.99092  -16.07748
       H    13.87949   -4.76523  -13.62614
       O    13.57082   -4.93815  -14.48360
      H1    13.10200   -5.78583  -14.41770
       H    11.82059   -6.51631  -17.72601
       O    12.29348   -5.72576  -17.41527
      H1    13.22942   -6.02101  -17.41818
       H     9.72486    1.17509  -16.56812
       O     9.43883    2.02436  -16.21915
      H1     9.40292    1.82162  -15.31934
       H    13.07121   -2.59189  -17.06750
       O    12.46023   -2.07954  -17.61587
      H1    12.11406   -1.39855  -17.03248
       H    14.20673   -3.95262  -15.81824
       O    14.63158   -3.23894  -16.32975
      H1    15.33345   -3.65959  -16.88574
       H    17.09903   -4.85796  -17.71752
       O    16.98869   -3.91504  -17.83805
      H1    17.77934   -3.39723  -17.51232
       H    13.43071    0.00882  -13.27019
       O    13.09162    0.23751  -12.36389
      H1    12.85919    1.17328  -12.41959
       H    12.73861    2.75182  -16.23833
       O    12.03283    3.32343  -15.86404
      H1    11.20634    2.89799  -15.90196
       H    13.46068    0.60264  -19.66828
       O    12.72372    0.55706  -19.05299
      H1    12.72035   -0.42161  -18.83337
       H    11.01115   -1.49905  -13.68553
       O    10.15157   -1.38770  -14.18282
      H1     9.66488   -2.17964  -14.31929
       H    10.72466   -4.09100  -19.55807
       O    11.42710   -3.49882  -19.78814
      H1    11.76064   -3.09519  -18.93204
       H     8.13690   -3.32386  -17.17359
       O     7.91036   -4.00835  -17.79785
      H1     7.13732   -3.67009  -18.25663

