54
frame 8 | Written by MDAnalysis XYZWriter (release 2.4.3)
       H     8.00265    8.74767  -13.31503
       O     9.00430    8.72456  -13.19811
      H1     9.11218    8.31660  -12.29232
       H     4.37649    6.69143   -4.25641
       O     4.62114    7.31946   -4.97114
      H1     3.97228    7.20356   -5.66303
       H     4.17075    9.64683  -11.90810
       O     4.99035    9.50133  -11.33505
      H1     5.67648   10.07855  -11.81166
       H     4.62450    4.01499   -7.63610
       O     3.71959    4.14958   -7.96036
      H1     3.19130    3.39499   -7.76436
       H     7.63074    7.07119  -10.22346
       O     7.56145    6.75465  -11.13844
      H1     6.65439    6.55419  -11.38329
       H    10.39033    8.27164   -9.69516
       O    10.42163    8.36510  -10.63475
      H1    11.03792    7.67544  -10.89353
       H     6.79637    3.64166   -6.39570
       O     6.20422    4.11084   -7.02623
      H1     6.66109    4.98628   -7.08824
       H    10.25261    8.91293   -6.95913
       O    10.02404    9.05367   -7.88760
      H1     9.18471    8.59023   -8.10496
       H     7.85359    6.86168   -6.13997
       O     8.13321    6.05977   -6.66200
      H1     9.09073    6.09403   -6.49339
       H     7.81141    7.17689   -7.96416
       O     7.70306    7.85688   -8.67259
      H1     6.77922    8.14107   -8.46299
       H     5.70791   10.37317   -7.16648
       O     6.36081   10.73142   -6.48771
      H1     5.94355   10.81356   -5.63171
       H     7.33811   11.20346  -11.16984
       O     7.02707   11.18957  -12.11616
      H1     6.62144   12.06377  -12.28603
       H     4.97295    9.30427   -9.65850
       O     5.12229    9.22066   -8.69144
      H1     4.45320    8.53600   -8.36189
       H     6.05389    8.16771   -5.58148
       O     7.01069    8.29869   -5.65323
      H1     7.00125    9.18581   -6.01752
       H     6.32322    8.64842   -2.59799
       O     6.86350    7.95011   -3.05605
      H1     6.98596    8.15547   -3.99674
       H     7.84487   11.65211   -8.82825
       O     8.52757   11.09692   -9.23180
      H1     8.86305   10.38416   -8.66236
       H     6.17310    7.65783  -13.95768
       O     6.24933    8.57180  -13.61498
      H1     5.92263    8.54219  -12.70216
       H     3.65784    6.11583   -7.51834
       O     3.42257    7.04284   -7.32549
      H1     2.47470    7.15976   -7.55754

