54
frame 8 | Written by MDAnalysis XYZWriter (release 2.4.3)
       H    18.16016  -10.51770   13.29210
       O    18.45474  -11.31650   12.77613
      H1    18.72641  -11.93114   13.50357
       H    16.40770  -14.36529   17.38895
       O    16.48058  -15.31130   17.52250
      H1    17.31969  -15.63840   17.21781
       H    16.04277  -18.82739   16.38256
       O    15.20625  -18.82039   15.93546
      H1    15.11938  -19.73871   15.57094
       H    18.07232  -15.15807   15.54498
       O    18.63865  -15.65246   16.10708
      H1    18.87302  -16.49302   15.64102
       H    19.08675  -12.79714    8.13589
       O    18.35255  -13.33141    8.39448
      H1    18.75251  -14.06323    8.88159
       H    16.24209  -16.72626   13.57504
       O    16.60196  -16.76889   12.69334
      H1    17.58072  -16.78422   12.80610
       H    19.80383  -14.66620   12.15369
       O    19.66162  -14.71656   13.09498
      H1    18.82235  -14.23471   13.24356
       H    16.89528  -13.38590   15.19504
       O    17.22065  -13.73347   14.32787
      H1    16.55295  -13.37628   13.70543
       H    16.58848  -18.45945   12.19952
       O    16.41579  -19.32080   11.75296
      H1    15.46747  -19.43198   11.65185
       H    13.96465  -15.64600   13.87830
       O    13.43813  -15.05492   13.30340
      H1    13.99459  -14.18589   13.06346
       H    16.62879  -18.48624    8.66498
       O    17.08687  -19.29480    9.02064
      H1    16.81509  -19.33311    9.94513
       H    18.59786  -18.49605    9.59048
       O    19.39241  -18.01982    9.97950
      H1    19.16390  -18.01467   10.91326
       H    15.85332  -13.76213   11.41448
       O    16.61913  -14.28569   11.63437
      H1    16.30920  -14.98189   12.21086
       H    18.88362  -16.04527   10.05359
       O    18.85326  -15.10629   10.24170
      H1    18.01439  -14.94044   10.66325
       H    15.66622  -15.95050   15.85612
       O    15.29866  -16.28733   15.05183
      H1    15.08158  -17.20494   15.20909
       H    17.03383  -16.44084    7.75794
       O    17.89075  -16.86439    7.67473
      H1    17.76479  -17.76998    7.39219
       H    19.42093  -16.42460   12.83340
       O    19.27779  -17.39358   12.76550
      H1    19.50807  -17.76670   13.64798
       H    16.53179  -15.25902    9.41782
       O    15.73352  -15.46311    8.99801
      H1    15.21574  -16.10234    9.46749

