54
frame 9 | Written by MDAnalysis XYZWriter (release 2.4.3)
       H     1.89485  -17.35571  -10.03265
       O     1.55111  -17.84303  -10.79261
      H1     1.71882  -17.23871  -11.51610
       H     5.60761  -13.27381  -12.91811
       O     4.68175  -13.28998  -13.09693
      H1     4.49684  -12.32386  -13.24332
       H    -1.98993  -17.12277  -11.74017
       O    -2.69001  -17.55266  -11.17445
      H1    -2.39426  -17.54772  -10.22523
       H     4.89248  -13.32468   -8.89292
       O     5.50511  -13.17195   -8.16627
      H1     5.02126  -12.76559   -7.47247
       H     1.99486  -17.81471  -14.14661
       O     2.04041  -17.14682  -13.45020
      H1     2.94980  -16.80903  -13.49580
       H     2.71184  -11.27225   -8.09348
       O     2.48389  -11.32545   -8.98390
      H1     1.56401  -11.35997   -9.22160
       H    -1.47604  -14.29613  -10.19868
       O    -1.09651  -13.90885  -11.02536
      H1    -0.70101  -13.06681  -10.74556
       H     0.17432  -16.66758  -13.22189
       O    -0.68121  -16.35881  -12.93655
      H1    -0.49335  -15.63819  -12.32694
       H     0.35539  -11.00034  -10.87224
       O     0.11026  -11.40299  -10.05554
      H1    -0.58563  -10.75262   -9.78032
       H     4.41683  -16.18122  -14.85243
       O     4.56146  -16.05745  -13.88435
      H1     4.55834  -15.08866  -13.70987
       H     5.33056  -16.39167  -11.94967
       O     5.48060  -16.22526  -11.03781
      H1     4.54486  -16.10179  -10.80569
       H    -0.09744  -17.43528   -9.69487
       O    -0.73982  -17.74820   -9.03939
      H1    -0.56134  -18.71475   -9.00765
       H    -3.52164  -12.63352  -12.78634
       O    -2.61467  -12.31296  -12.81442
      H1    -2.22624  -12.73147  -11.99523
       H     2.25013  -14.21663  -10.60623
       O     1.46861  -14.78380  -10.84687
      H1     0.69758  -14.22701  -10.77547
       H     3.42361  -12.39180  -10.05768
       O     3.67141  -13.20998  -10.52307
      H1     3.92937  -12.96134  -11.44768
       H     1.83984  -14.96052   -7.41587
       O     1.51143  -15.23812   -6.54853
      H1     0.66314  -14.70332   -6.46274
       H     0.15000  -12.99825  -14.84152
       O     0.01781  -13.16233  -13.89479
      H1    -0.94659  -13.03413  -13.83132
       H     0.58813  -11.78574  -12.99432
       O     0.90352  -10.86767  -12.64005
      H1     0.18432  -10.32714  -12.97810

