54
frame 9 | Written by MDAnalysis XYZWriter (release 2.4.3)
       H    -5.29941    6.79864   -8.18266
       O    -5.33317    6.14800   -7.46309
      H1    -6.16647    6.24421   -6.92103
       H    -3.45316   14.04584  -10.55764
       O    -3.42946   13.06415  -10.43220
      H1    -3.93176   12.69302  -11.16613
       H    -7.07795    9.88883   -5.41369
       O    -6.90051    9.29662   -6.11111
      H1    -7.73694    8.88031   -6.27249
       H    -0.97680    8.45914   -5.65054
       O    -1.30642    8.48624   -6.57142
      H1    -2.01626    9.09601   -6.72736
       H    -4.50885    7.42376   -5.04461
       O    -4.41269    8.38486   -5.29050
      H1    -5.22154    8.49373   -5.77729
       H    -4.01922    9.37169   -3.95871
       O    -3.67608    9.84095   -3.16261
      H1    -4.16975    9.45866   -2.47597
       H    -6.18465   11.51936   -8.48580
       O    -5.31499   11.91513   -8.11902
      H1    -4.82846   12.28856   -8.87132
       H    -0.66265   10.59734   -2.49349
       O    -0.91895   10.33576   -3.43589
      H1    -1.89503   10.05872   -3.40737
       H    -1.38518    9.83198  -10.31714
       O    -1.77410   10.38715  -11.04299
      H1    -2.32423   11.07799  -10.53156
       H    -4.05629   11.63035   -3.38792
       O    -4.53441   12.44924   -3.60458
      H1    -4.67932   12.47084   -4.52261
       H    -0.90442   11.52379   -8.19955
       O    -0.37254   10.73835   -8.31757
      H1     0.49983   10.98772   -8.59900
       H    -0.49743    7.84820   -8.91413
       O    -1.36063    8.19039   -9.31878
      H1    -1.81705    8.73479   -8.64261
       H    -4.41558   10.53758   -7.50815
       O    -3.74774    9.80035   -7.33088
      H1    -4.08216    9.18038   -6.61093
       H    -4.31157    7.96614   -9.87400
       O    -4.91256    8.39717   -9.19596
      H1    -4.33463    8.90949   -8.56220
       H    -6.15491   12.95392   -6.89768
       O    -6.85214   13.50213   -6.45076
      H1    -7.70047   13.42315   -6.95440
       H    -6.44627    9.27959   -9.50187
       O    -7.35921    9.66387   -9.42884
      H1    -7.81873    9.25060   -8.71170
       H    -2.89500   13.03267   -3.72051
       O    -1.93127   13.12199   -3.92435
      H1    -1.58518   12.23486   -4.00348
       H    -2.42161   13.32215   -8.85546
       O    -1.69657   13.09383   -8.22020
      H1    -1.89318   13.71728   -7.48488

