54
frame 9 | Written by MDAnalysis XYZWriter (release 2.4.3)
       H    -4.42875    5.08003   12.90129
       O    -4.35225    4.24465   12.31208
      H1    -4.29947    3.49098   12.90730
       H    -0.05049    3.47044   13.93001
       O    -0.40132    3.49743   14.81448
      H1     0.18011    2.84500   15.25566
       H    -4.02966    2.56974   17.85116
       O    -3.50252    3.22464   18.29282
      H1    -3.22741    3.83742   17.56831
       H    -7.04093    1.56152   14.51669
       O    -6.73254    2.43947   14.96821
      H1    -7.39447    3.03046   15.13052
       H     0.82282    1.12587   16.72968
       O     1.10360    2.05338   16.62173
      H1     0.58583    2.61382   17.18322
       H    -1.84026    0.36641   19.60971
       O    -1.72292   -0.26015   18.85596
      H1    -2.55329   -0.40356   18.41395
       H    -7.64730    7.22099   15.10271
       O    -6.73199    7.23323   14.77727
      H1    -6.14280    7.40721   15.52454
       H    -1.73069    7.37605   17.51370
       O    -1.88744    7.34117   16.56044
      H1    -1.04326    7.58188   16.12829
       H    -4.13863   -0.38407   16.72608
       O    -3.69721   -1.16321   17.07123
      H1    -2.81108   -1.21152   16.65668
       H    -1.73232    4.40487   16.07668
       O    -2.57697    4.79453   16.25096
      H1    -2.33540    5.72685   16.24716
       H    -1.76155    2.94828   18.06904
       O    -0.87713    3.32216   18.11563
      H1    -0.74727    3.53962   19.03481
       H     1.80522    5.34563   17.82028
       O     1.23107    5.31686   17.07132
      H1     0.37674    5.08746   17.46138
       H    -1.41742    2.07936   15.35077
       O    -1.81085    1.28825   15.78611
      H1    -1.05327    0.69784   16.11975
       H    -5.62393    1.03259   17.61268
       O    -5.23225    1.26398   16.77335
      H1    -5.97941    1.63163   16.25224
       H    -3.44308    1.66926   14.43659
       O    -4.13563    1.89399   13.83494
      H1    -4.91985    2.04097   14.33882
       H    -1.76504    3.80720   12.73394
       O    -0.95033    3.69210   12.19425
      H1    -0.95522    2.72448   12.02534
       H    -4.44005    9.28601   15.97813
       O    -4.40835    8.36833   16.11639
      H1    -3.47065    8.10255   16.28717
       H    -4.78976    8.05126   18.33396
       O    -4.05091    7.85273   18.93546
      H1    -4.23618    8.24089   19.78041

