54
frame 9 | Written by MDAnalysis XYZWriter (release 2.4.3)
       H   -12.96924   -6.30301   18.42632
       O   -13.57467   -7.00516   18.66504
      H1   -14.03308   -6.67694   19.42467
       H   -12.43029   -9.74753   17.76786
       O   -13.29405   -9.58142   18.10138
      H1   -13.25296   -8.69364   18.46797
       H   -14.04204   -9.35696   15.70131
       O   -14.26145  -10.22977   15.45123
      H1   -14.23889  -10.73562   16.31844
       H   -16.11097  -14.87425   18.74294
       O   -16.32777  -14.52540   17.86672
      H1   -15.49293  -14.02385   17.65565
       H   -10.29530   -8.52105   17.57964
       O   -10.49417   -9.45124   17.38402
      H1   -10.60985   -9.43271   16.45991
       H   -13.82339  -12.49735   18.32619
       O   -14.13826  -12.70478   17.42418
      H1   -13.54121  -13.35456   16.95916
       H   -16.82647  -10.03125   13.44802
       O   -16.71446   -9.60949   14.29763
      H1   -15.82908   -9.83917   14.62215
       H   -16.93154   -7.44733   13.96578
       O   -17.24721   -6.72269   13.37349
      H1   -17.14939   -7.14125   12.49757
       H   -12.90969  -11.52237   14.93219
       O   -12.19884  -12.09218   14.56248
      H1   -11.89536  -11.51103   13.80106
       H   -15.10616  -12.05932   12.69603
       O   -15.12472  -11.13733   12.40077
      H1   -16.08995  -11.02713   12.22612
       H   -18.85980   -8.64492   18.44100
       O   -18.95671   -8.37740   17.52299
      H1   -18.93079   -9.22045   17.03122
       H   -16.30993   -9.15226   17.89321
       O   -16.10038  -10.03023   18.17933
      H1   -15.15413  -10.07777   17.92149
       H   -14.07064   -7.33048   16.70379
       O   -14.26658   -7.22872   15.73012
      H1   -15.22832   -7.07483   15.65866
       H   -17.58824   -7.18019   17.18017
       O   -16.99035   -6.70339   16.59601
      H1   -17.55692   -6.07729   16.14264
       H   -17.16950  -11.49473   18.32644
       O   -17.92651  -12.09195   18.24258
      H1   -17.52882  -12.93113   17.95002
       H   -18.62241  -11.48611   16.77256
       O   -18.78144  -10.81694   16.05673
      H1   -17.91301  -10.50413   15.64310
       H   -13.20427   -6.44403   14.62111
       O   -12.79388   -6.03055   13.83697
      H1   -13.71010   -5.76469   13.48661
       H   -15.12840   -8.59344   12.65602
       O   -14.96672   -7.84509   12.04628
      H1   -14.23892   -8.08930   11.43627

