54
frame 9 | Written by MDAnalysis XYZWriter (release 2.4.3)
       H    -6.92015   -8.78699  -17.81610
       O    -7.25441   -9.51344  -18.35967
      H1    -7.10010   -9.24227  -19.25970
       H   -13.13031  -13.07554  -18.39625
       O   -13.98674  -13.06044  -18.90902
      H1   -14.39370  -12.22515  -18.54906
       H   -11.48319  -14.58533  -17.61248
       O   -11.97972  -13.83476  -17.25333
      H1   -11.30578  -13.24730  -16.95231
       H   -11.49040   -9.82338  -13.40959
       O   -11.86040  -10.29239  -14.19408
      H1   -11.09670  -10.64448  -14.72879
       H    -9.94748  -13.36554  -12.20635
       O   -10.36182  -13.58566  -11.38883
      H1   -10.53454  -14.52637  -11.45233
       H    -9.17346  -14.32335  -14.26272
       O    -9.34499  -13.40673  -14.04350
      H1    -8.64813  -13.19439  -13.40394
       H   -13.26323  -15.82874  -15.13281
       O   -12.84927  -14.96577  -14.91950
      H1   -12.50503  -14.66670  -15.75093
       H    -6.28402  -10.84307  -16.62692
       O    -5.63245  -10.95338  -15.90753
      H1    -6.07548  -10.69375  -15.11997
       H   -10.32075   -9.71290  -18.78210
       O    -9.74504   -8.93852  -18.61635
      H1    -8.77234   -9.29610  -18.57047
       H   -10.06156  -12.36957  -15.30250
       O   -10.38659  -11.80686  -16.01423
      H1    -9.54170  -11.60486  -16.39754
       H   -11.84341   -8.10806  -16.58178
       O   -11.30704   -7.43663  -16.92941
      H1   -10.53387   -7.87979  -17.39889
       H   -12.38681  -10.80245  -19.54468
       O   -11.67977  -11.00331  -18.94942
      H1   -11.32755  -11.86986  -19.23247
       H    -9.13782  -10.03956  -12.55341
       O    -9.92698   -9.46870  -12.35431
      H1    -9.48982   -8.60593  -12.18578
       H   -12.47589  -11.85822  -13.77095
       O   -12.94864  -12.63541  -13.37032
      H1   -12.87455  -13.36987  -14.00784
       H   -10.40091   -7.36552  -15.24664
       O    -9.55755   -7.39108  -14.74538
      H1    -9.07736   -6.70293  -15.22016
       H    -8.34619  -15.72398  -18.54129
       O    -8.87577  -15.57724  -17.76104
      H1    -8.23634  -15.51746  -17.01121
       H    -7.02338  -12.95810  -18.35131
       O    -7.54237  -12.23184  -18.03756
      H1    -7.54389  -11.49725  -18.66742
       H   -12.13968  -10.46951  -17.15729
       O   -12.78641  -10.08316  -16.63129
      H1   -12.46650  -10.04973  -15.74324

