54
frame 9 | Written by MDAnalysis XYZWriter (release 2.4.3)
       H   -10.70039   -8.24714   -6.19217
       O   -11.16081   -7.62669   -5.60212
      H1   -11.55840   -7.04456   -6.23604
       H   -10.20487  -12.11601   -9.85729
       O    -9.52666  -11.89957   -9.19009
      H1    -9.24587  -12.75978   -8.91441
       H    -9.50167  -15.23976   -8.19892
       O    -9.05351  -14.42128   -8.02338
      H1    -8.84746  -14.19700   -7.06199
       H   -13.96898   -9.08871   -3.11640
       O   -13.34684   -8.32394   -3.11185
      H1   -13.07522   -8.17315   -4.06952
       H    -6.80178   -8.86051   -7.73819
       O    -7.44019   -9.20572   -7.09449
      H1    -6.99080   -8.86401   -6.26340
       H    -9.57998   -5.68467   -8.55084
       O    -9.95280   -6.04565   -7.75407
      H1    -9.91774   -7.04492   -7.87525
       H   -10.27091  -10.62073   -6.49900
       O    -9.92375  -11.06057   -5.74627
      H1   -10.73864  -11.17164   -5.17618
       H    -8.57834  -14.54183   -5.05625
       O    -8.38884  -13.76469   -5.50608
      H1    -9.22093  -13.23792   -5.52650
       H   -10.65948   -8.95152   -8.69081
       O   -10.20517   -9.03589   -7.79543
      H1    -9.26926   -9.11519   -7.97299
       H    -7.00260   -6.80327   -4.29918
       O    -6.68419   -7.56264   -4.78280
      H1    -7.25852   -8.25920   -4.55946
       H    -8.62383  -10.32432   -4.82307
       O    -8.06083   -9.89785   -4.14722
      H1    -8.04555  -10.45311   -3.37958
       H   -12.42305  -10.11773   -4.04365
       O   -12.39090  -11.03238   -3.96237
      H1   -13.30760  -11.26430   -4.00034
       H    -9.07614   -8.68775   -3.40732
       O    -9.67244   -8.02287   -3.01557
      H1   -10.35224   -7.79111   -3.70216
       H   -11.22628   -9.40064  -10.55559
       O   -11.85975   -9.47923   -9.84719
      H1   -12.00880  -10.40016   -9.69454
       H   -13.53688  -12.76786   -9.77191
       O   -13.14935  -12.25630   -9.02994
      H1   -13.83487  -11.73856   -8.66600
       H    -7.17941  -10.76967   -7.74504
       O    -6.78992  -11.50216   -8.28624
      H1    -7.48433  -11.55788   -8.93331
       H   -15.09757  -11.22293   -6.70863
       O   -14.66870  -10.63896   -7.32413
      H1   -14.57894   -9.78793   -6.87990
       H   -11.50961  -12.72872   -3.92632
       O   -10.69336  -13.26049   -3.83134
      H1   -10.99620  -14.09727   -3.44374

