54
frame 9 | Written by MDAnalysis XYZWriter (release 2.4.3)
       H     3.62764   16.33768  -10.59740
       O     2.83262   15.72878  -10.41191
      H1     2.14780   16.43201  -10.27019
       H     5.61971   19.14165  -14.73101
       O     4.99198   18.39253  -14.42973
      H1     4.27604   18.34760  -15.04008
       H     8.99684   13.31365  -12.39474
       O     8.21039   13.85106  -12.63691
      H1     7.91817   13.60285  -13.52623
       H     5.78049   16.62262  -10.38061
       O     5.21352   17.27838  -10.84440
      H1     5.77423   17.41196  -11.66405
       H     4.85631   15.81751  -14.88353
       O     5.41700   15.08867  -14.86521
      H1     5.11284   14.54663  -15.57285
       H     7.90262   19.07566  -13.33511
       O     7.58499   18.57681  -12.55399
      H1     8.10038   19.06572  -11.91217
       H     8.94058   17.13368  -12.59549
       O     9.28885   16.54076  -13.27663
      H1     8.91242   15.67012  -13.08542
       H     9.77624   16.34391  -10.06864
       O     9.22682   17.02765  -10.51890
      H1     9.79694   17.78088  -10.68553
       H     7.70792   15.97673  -10.17595
       O     7.06913   15.23816  -10.27863
      H1     7.23327   14.99719  -11.18351
       H     4.87089   14.11712  -13.11781
       O     4.75181   13.37929  -12.48722
      H1     3.80428   13.18194  -12.45243
       H     3.14609   18.67774  -11.09726
       O     2.22429   18.54833  -11.22453
      H1     1.82229   19.42324  -11.21676
       H     4.37850   16.62477   -7.54369
       O     4.65874   15.94809   -6.88364
      H1     5.65488   16.15061   -6.79804
       H     6.48720   18.12968  -10.19654
       O     7.13379   18.51269   -9.55628
      H1     7.95151   17.94281   -9.66500
       H     6.24157   13.96884   -7.94848
       O     6.24837   13.23980   -7.24797
      H1     5.30272   13.03947   -7.06149
       H     7.85336   11.97034   -9.85005
       O     7.50055   11.66814  -10.74410
      H1     7.22198   12.41720  -11.25632
       H     0.78229   13.25833   -9.90768
       O     1.46100   13.36075   -9.16996
      H1     2.06548   14.00412   -9.55314
       H     2.91211   18.49803   -8.71330
       O     3.78645   18.16512   -8.40244
      H1     4.34055   19.00646   -8.23871
       H     7.02621   17.86971   -7.66129
       O     7.21073   17.12926   -7.03978
      H1     7.12723   17.53519   -6.12393

