54
frame 10 | Written by MDAnalysis XYZWriter (release 2.4.3)
       H    -7.35385    9.65806  -18.52388
       O    -8.25977    9.99801  -18.56855
      H1    -7.96884   10.88523  -18.62784
       H   -10.29443    8.55544  -10.95782
       O    -9.65235    8.28093  -11.63468
      H1    -9.95690    7.38547  -11.86865
       H    -8.37331   11.96051  -12.66979
       O    -8.61633   12.82820  -12.97498
      H1    -9.08865   13.18314  -12.24232
       H    -8.91281    7.90898  -16.04982
       O    -8.36617    8.69414  -15.82953
      H1    -8.31323    9.22395  -16.65602
       H    -5.98146   13.47575  -16.19638
       O    -6.34806   12.64647  -16.50855
      H1    -6.04488   11.89072  -15.98149
       H   -10.71539    7.10578  -17.58063
       O   -10.30323    7.67940  -18.24620
      H1   -10.67348    8.53262  -18.05845
       H   -10.06325    5.50196  -13.82340
       O    -9.86034    5.96076  -14.63346
      H1    -8.98151    5.64879  -14.93353
       H    -7.03546   10.11165  -11.28296
       O    -7.58891   10.37519  -11.98901
      H1    -8.35954    9.78191  -11.87593
       H   -10.48032    9.60835  -13.72145
       O   -10.38022   10.04053  -14.59177
      H1    -9.62141    9.66177  -14.98781
       H    -8.45865   14.46000  -16.97445
       O    -8.47351   14.21627  -16.06774
      H1    -7.67145   13.67920  -16.04621
       H   -11.65164   12.64759  -16.62210
       O   -12.19153   12.98232  -17.42256
      H1   -12.82749   12.23098  -17.58563
       H    -6.92603    9.22606  -13.19415
       O    -6.44530    8.71988  -13.80734
      H1    -7.17741    8.54570  -14.43259
       H   -12.66158    8.95032  -16.78411
       O   -11.90295    9.48256  -16.95566
      H1   -11.47038    9.51574  -16.07043
       H    -3.86421    9.93572  -15.09616
       O    -4.72745   10.22434  -15.46169
      H1    -5.31589    9.77904  -14.88844
       H   -12.68756    6.38114  -16.38674
       O   -11.90953    5.80332  -16.45304
      H1   -11.25481    6.25055  -15.89780
       H   -13.80482    8.09962  -14.00100
       O   -13.91767    7.72221  -14.91719
      H1   -14.90250    7.70552  -14.99879
       H    -9.59230   12.77090  -15.33760
       O   -10.59934   12.61473  -15.24444
      H1   -10.70078   11.75917  -14.73599
       H   -10.83967   12.45769  -18.56622
       O   -10.51968   12.09548  -19.40450
      H1   -10.59441   11.14536  -19.23948

