54
frame 0 | Written by MDAnalysis XYZWriter (release 2.4.3)
       H    14.36351    1.84676   -9.77855
       O    14.09597    1.65666   -8.85351
      H1    13.99052    0.70407   -8.98749
       H    11.48957   -3.06026   -6.27638
       O    11.78347   -2.56875   -5.47490
      H1    11.31653   -2.92311   -4.68508
       H     6.06917    0.23548   -9.69814
       O     6.65131   -0.08158  -10.41274
      H1     6.57180    0.65260  -11.02546
       H    11.25138   -2.63836  -11.48894
       O    11.37005   -3.58100  -11.77080
      H1    12.02213   -3.70408  -12.41117
       H    12.62557   -0.07910  -13.75545
       O    12.02511    0.36525  -14.35828
      H1    12.59106    0.45924  -15.14985
       H    10.23776   -2.21432  -13.59312
       O    10.83523   -2.05771  -14.30966
      H1    11.12003   -1.10352  -14.34706
       H    14.23745   -0.59376  -10.78689
       O    13.80190   -0.97113   -9.97859
      H1    12.81664   -1.22619  -10.11840
       H    10.40336   -4.11638   -8.77941
       O    10.30320   -3.64293   -7.89898
      H1     9.37349   -3.73183   -7.69801
       H     7.26012    0.93793   -9.01309
       O     7.22955    1.27363   -8.11259
      H1     6.59465    2.02149   -8.14881
       H    10.77432   -1.12396   -9.38474
       O    11.09272   -1.29789  -10.29000
      H1    10.51131   -0.62268  -10.73864
       H     7.94699   -1.69995  -12.17012
       O     8.62043   -1.25442  -12.76236
      H1     8.80243   -0.45657  -12.26414
       H     9.22799    1.74229  -11.55484
       O     9.78489    0.98259  -11.78102
      H1    10.59146    1.31220  -12.16179
       H    10.46700   -0.38760   -7.17212
       O     9.86741   -0.76935   -7.82076
      H1     9.78876   -1.70900   -7.58681
       H    11.87098    0.96101   -5.83274
       O    11.72365    1.12014   -6.78802
      H1    12.49673    1.44406   -7.19260
       H    14.89447   -0.61382  -13.41683
       O    14.20970   -0.35278  -12.77267
      H1    14.40033    0.58002  -12.49489
       H    11.62075    2.14258  -13.42894
       O    11.80225    2.82071  -12.76303
      H1    11.15202    3.49653  -12.97111
       H    10.22449   -4.71274  -11.14474
       O     9.58678   -5.25117  -10.71921
      H1     8.88788   -4.63820  -10.37113
       H    15.21414   -3.42748  -10.74813
       O    15.00713   -3.29946   -9.80370
      H1    14.41390   -2.53518   -9.86406

