54
frame 10 | Written by MDAnalysis XYZWriter (release 2.4.3)
       H    16.14902    6.23822   10.79614
       O    15.24754    6.61219   10.73687
      H1    14.83332    6.48163   11.59125
       H    15.44406    3.32535    8.27677
       O    15.05903    4.07346    7.74584
      H1    14.49298    4.52183    8.44141
       H    11.33168    8.84369   11.29616
       O    11.85664    9.54155   11.67967
      H1    12.11758   10.13280   10.92869
       H    18.23675    6.91325   10.37686
       O    17.87782    5.99516   10.35305
      H1    17.93688    5.81466    9.36614
       H    13.20196    2.68621   13.20731
       O    12.59698    3.40858   13.13375
      H1    11.94619    3.19555   12.44676
       H    14.08849   11.15776   11.48886
       O    14.72409   10.57774   11.00550
      H1    14.34089   10.35855   10.09930
       H    16.56448    3.61761   13.76660
       O    16.60902    3.79982   14.71475
      H1    15.83371    3.47273   15.16498
       H    14.17234    8.82895   13.80018
       O    13.26562    8.90977   14.12297
      H1    12.66851    8.79159   13.33742
       H    15.61190    8.11980    7.66648
       O    15.47174    7.18329    7.69762
      H1    15.49265    6.93187    8.62228
       H    16.07223    2.42828   11.34739
       O    16.39468    2.45225   12.29973
      H1    17.17888    1.92964   12.35468
       H    13.28169    6.58683   13.67624
       O    13.46274    6.24432   12.78802
      H1    13.37918    5.27028   12.81341
       H    17.82853   10.08293   11.17530
       O    17.43410   10.96887   11.46161
      H1    16.48873   10.81875   11.56086
       H    11.99872    6.98939   16.00351
       O    12.92636    6.95583   15.84820
      H1    13.10408    7.78035   15.35004
       H    10.91958    4.75930   11.03051
       O    10.91568    5.44543   11.70226
      H1    11.78473    5.70972   11.95955
       H    16.87800    5.70761   14.66152
       O    17.08507    6.55369   15.03056
      H1    16.64819    7.16857   14.40988
       H    12.78140    6.02538    8.91089
       O    13.38126    5.42300    9.38503
      H1    14.03442    5.90870    9.90659
       H    19.25008    9.13204    9.97401
       O    18.62312    8.62503   10.54692
      H1    19.29897    8.29574   11.23590
       H    15.48980    8.83579   12.60772
       O    15.85891    8.61929   13.51629
      H1    16.44655    9.37281   13.78333

