54
frame 10 | Written by MDAnalysis XYZWriter (release 2.4.3)
       H    -1.18057   -7.89829    0.17392
       O    -1.65159   -8.72883    0.50016
      H1    -2.01853   -8.50498    1.37355
       H     1.87179   -9.00197    0.44579
       O     2.28230   -9.08656   -0.42633
      H1     3.07691   -8.53304   -0.35983
       H     4.52405   -8.43790    3.96303
       O     4.27660   -7.83008    4.61254
      H1     5.00123   -7.16287    4.53181
       H     2.75683   -5.30442    3.02990
       O     2.63965   -6.23578    2.84300
      H1     3.23891   -6.83365    3.37858
       H     2.92745  -12.11646    2.41385
       O     3.08669  -11.27493    1.95980
      H1     2.39687  -10.73611    2.38342
       H    -3.54767  -11.10118    2.53530
       O    -3.80988  -10.18033    2.34015
      H1    -3.17471   -9.53644    2.62492
       H    -0.38788  -13.34637    4.94463
       O     0.34803  -12.79518    5.26313
      H1     1.09871  -13.00671    4.74415
       H     0.63537   -6.27659   -0.83338
       O     0.38895   -7.13959   -1.09338
      H1     1.04743   -7.75899   -0.92648
       H    -0.38670  -10.34902    7.55777
       O    -0.83923  -10.39930    6.71708
      H1    -0.27790  -10.96021    6.14098
       H     2.34115  -12.01879   -1.39362
       O     2.65058  -12.42084   -0.56532
      H1     3.02683  -11.69005   -0.08818
       H    -1.54912  -11.01395    1.91956
       O    -0.74950  -11.38255    2.31651
      H1    -0.76500  -11.57345    3.32337
       H     0.99612   -7.68229    6.15407
       O     1.39463   -8.32322    5.53902
      H1     1.82784   -9.00363    6.12676
       H    -0.15940  -12.89253    1.48567
       O     0.32787  -13.72574    1.26893
      H1     0.92643  -13.53131    0.59240
       H     4.55788  -10.59319    2.94064
       O     5.28358   -9.94790    3.08984
      H1     5.96955  -10.34110    3.68313
       H    -1.96348   -7.21657    3.18360
       O    -2.58512   -7.87021    3.43320
      H1    -3.39045   -7.58547    3.82661
       H     1.15601   -9.04590    3.95196
       O     1.20844   -9.58723    3.09776
      H1     0.30008   -9.78582    2.79387
       H     3.61572  -13.53736    4.30092
       O     2.91946  -13.44832    3.68853
      H1     2.70913  -14.30670    3.28227
       H    -0.43799   -5.76160    3.35943
       O    -0.25211   -6.32371    2.58090
      H1     0.70175   -6.43346    2.53813

