54
frame 10 | Written by MDAnalysis XYZWriter (release 2.4.3)
       H   -13.71267   15.53516    3.51432
       O   -13.86890   15.58034    4.48825
      H1   -14.50344   16.31848    4.55193
       H   -16.89033   14.50699    5.48516
       O   -17.12458   13.70484    5.09286
      H1   -16.49458   13.42246    4.41714
       H   -18.28997   14.62507    4.00756
       O   -18.58982   15.30904    3.38918
      H1   -19.55309   15.51541    3.48247
       H   -13.92546   17.39116    2.74456
       O   -14.49671   17.99922    3.18670
      H1   -15.27296   17.96960    2.67117
       H   -19.08945   18.30355    0.92995
       O   -18.59806   19.14170    0.93391
      H1   -19.09955   19.90341    0.59976
       H   -17.96393   18.35278    2.72871
       O   -17.53407   17.87359    3.47196
      H1   -17.80894   16.95914    3.31222
       H   -18.32360   14.44881    0.50421
       O   -18.24953   13.71702    1.18333
      H1   -18.43533   14.18540    2.02440
       H   -16.52187   13.09775    1.79766
       O   -15.73975   13.11014    2.40007
      H1   -15.25203   12.34709    2.09350
       H   -15.32689   17.49409    6.22319
       O   -16.02119   17.00460    5.74782
      H1   -16.20171   17.59385    5.02419
       H   -15.47965    9.78144    1.33692
       O   -15.09566   10.32596    0.67083
      H1   -15.70388   10.59072   -0.05323
       H   -14.82405   15.46388    0.61202
       O   -14.38303   15.29050    1.49634
      H1   -14.83403   14.47525    1.77380
       H   -18.02675   12.30084    5.85819
       O   -18.70244   11.76815    6.27795
      H1   -18.33012   10.91071    6.53035
       H   -17.65266   13.58007   -2.15655
       O   -17.96323   12.74934   -2.69125
      H1   -17.89752   13.03124   -3.59006
       H   -19.17619   12.39481   -1.48741
       O   -19.79805   12.30964   -0.71210
      H1   -19.25841   12.60739    0.01189
       H   -14.09121   13.73962    5.42426
       O   -13.72200   12.95194    5.84750
      H1   -14.15877   12.23832    5.41347
       H   -17.70845   16.53925    6.44213
       O   -18.41440   16.24891    7.02405
      H1   -18.86866   17.00845    7.31490
       H   -17.52390   16.03778   -1.65873
       O   -18.21598   15.55330   -1.16492
      H1   -18.78617   16.22199   -0.80613
       H   -17.35335    9.97912   -1.15687
       O   -16.72413   10.41893   -1.64583
      H1   -17.07100   11.24807   -1.90891

