54
frame 10 | Written by MDAnalysis XYZWriter (release 2.4.3)
       H     3.10940   10.38474   17.52593
       O     2.87802    9.47093   17.39863
      H1     3.72629    9.04938   17.27660
       H     3.76700    6.41248   14.24836
       O     4.14178    7.20876   14.59437
      H1     3.30705    7.66340   14.77367
       H    -0.46093   10.54777   18.76161
       O    -0.44308   11.52590   18.53502
      H1    -0.72030   11.59508   17.59442
       H     1.80231    5.39071   13.50414
       O     2.61804    4.97675   13.83912
      H1     2.25028    4.61122   14.66480
       H    -1.80308    9.38860   12.14282
       O    -2.71731    9.17921   12.52174
      H1    -2.69844    9.55374   13.39240
       H     2.24023    9.98526   14.30435
       O     1.94869    9.23455   14.88811
      H1     2.13143    9.45504   15.81941
       H    -6.70096    7.48457   15.23731
       O    -6.15866    7.86780   14.55203
      H1    -5.32391    8.12296   15.05141
       H    -1.55343    8.11033   17.90912
       O    -1.69438    7.76764   16.99534
      H1    -0.85225    7.72183   16.58230
       H    -1.74200    4.77733   15.63973
       O    -2.42947    5.23321   16.21353
      H1    -2.03548    5.99421   16.64615
       H     0.98209    6.56818   16.20901
       O     0.59155    7.13834   15.55185
      H1     1.18245    7.89387   15.34154
       H     1.84631    5.36751   17.79185
       O     1.03191    5.19908   17.24433
      H1     0.42636    4.81824   17.89605
       H    -3.80796   12.02138   14.55834
       O    -3.31538   11.29185   14.93824
      H1    -2.42742   11.61115   15.08200
       H    -0.19714    5.99510   12.12659
       O     0.55322    6.13208   12.74860
      H1     0.15148    6.51187   13.59453
       H    -2.22056   11.78539   18.60715
       O    -3.15759   11.87957   18.77758
      H1    -3.71157   11.32007   18.16854
       H     0.09839   10.64255   15.60631
       O    -0.54666   11.33443   15.86043
      H1    -0.52047   11.79658   15.03783
       H    -3.01951    5.75841   14.59794
       O    -3.15716    6.16747   13.70573
      H1    -3.48890    7.08110   13.81555
       H    -3.93272    9.65197   15.61401
       O    -4.00724    8.85240   16.10232
      H1    -3.08711    8.61460   16.34672
       H    -4.63458    8.29174   17.74223
       O    -4.92102    7.72260   18.46774
      H1    -5.26688    8.32566   19.14867

