54
frame 10 | Written by MDAnalysis XYZWriter (release 2.4.3)
       H    16.83524  -18.19336  -14.37039
       O    16.63800  -17.34868  -13.96634
      H1    16.07799  -17.50985  -13.19806
       H    15.12506  -12.63173  -15.76190
       O    14.62227  -13.44056  -15.45644
      H1    15.08117  -14.14814  -15.88683
       H    12.35165  -16.28212  -15.23330
       O    12.47624  -16.85688  -15.98950
      H1    12.69616  -17.81083  -15.85462
       H    18.50189  -13.27989  -15.59766
       O    18.50297  -13.72444  -14.72266
      H1    19.28003  -13.37280  -14.29175
       H    14.88612  -11.60231   -9.15831
       O    15.17049  -12.13954   -8.45210
      H1    16.04522  -12.45215   -8.55731
       H    14.38781  -16.43634  -16.14690
       O    15.35887  -16.31916  -16.17936
      H1    15.71060  -16.57589  -15.30079
       H    13.00453   -9.67662  -10.10124
       O    13.66474  -10.41414  -10.09357
      H1    13.31694  -11.09889  -10.70061
       H    13.90276  -17.46538  -11.92118
       O    14.79101  -17.06434  -11.98408
      H1    14.57397  -16.17251  -12.33089
       H    12.94405  -15.09050   -9.11043
       O    12.28494  -15.50023   -9.68700
      H1    11.56047  -15.82131   -9.12773
       H    13.84017  -14.60131   -7.12402
       O    14.25692  -14.56044   -8.00619
      H1    14.50751  -13.60202   -8.19519
       H    12.19747  -14.08223  -10.63541
       O    12.52854  -13.33726  -11.20853
      H1    13.15160  -13.80574  -11.78929
       H    10.93539  -11.68725  -15.20997
       O    11.76940  -11.80764  -14.72080
      H1    12.51041  -11.26191  -15.11607
       H    15.51974  -16.37733   -9.84965
       O    16.45048  -16.17540   -9.75389
      H1    16.85355  -17.03895   -9.46523
       H    11.56102  -15.01192  -13.28710
       O    12.31548  -15.15135  -13.88301
      H1    12.83562  -14.33683  -13.83193
       H    15.69328  -14.27644  -12.31099
       O    14.79158  -14.29573  -12.59287
      H1    14.86451  -14.12882  -13.55549
       H    13.18286  -13.81999  -16.55039
       O    12.66416  -14.30965  -17.20053
      H1    12.64564  -15.20747  -16.79877
       H    16.92889  -11.70963  -12.51943
       O    17.87149  -11.69853  -12.82763
      H1    17.85780  -12.35560  -13.54898
       H    16.95372  -15.73098  -11.45415
       O    17.35363  -15.38408  -12.25446
      H1    17.33126  -16.12599  -12.93672

