54
frame 11 | Written by MDAnalysis XYZWriter (release 2.4.3)
       H    18.25814   -1.29064   12.56493
       O    17.65518   -1.06428   13.27213
      H1    18.08320   -0.98985   14.10872
       H    15.33427   -2.23431   18.64730
       O    15.70123   -1.39880   18.32496
      H1    15.22220   -1.34348   17.49457
       H    18.14941   -0.46190   16.75899
       O    18.67281   -0.90575   16.09328
      H1    18.42032   -1.85686   16.04590
       H    16.97060   -2.42863   10.89237
       O    16.21696   -2.12858   10.36398
      H1    15.84840   -2.86171    9.87596
       H    14.61397   -1.59774   10.81024
       O    13.75335   -1.25340   11.18876
      H1    13.57141   -0.49154   10.61084
       H    15.85382    0.38912   13.20940
       O    14.90760    0.39322   13.27168
      H1    14.57725   -0.21946   12.56682
       H    13.75871   -7.18778   16.37750
       O    14.16631   -7.19910   15.49266
      H1    13.40440   -7.51744   14.92592
       H    13.48451   -4.02572   18.48289
       O    13.58600   -3.97690   17.52944
      H1    14.52493   -4.26384   17.48923
       H    11.26997   -5.89320   16.57921
       O    11.02713   -5.38216   15.74740
      H1    11.89363   -5.01918   15.45204
       H    18.68672   -4.13854   15.99567
       O    17.91353   -3.57998   15.91901
      H1    17.49098   -3.68160   15.07031
       H    13.31708   -5.43927   13.37268
       O    13.16824   -6.07459   12.65708
      H1    12.57420   -6.69686   13.06812
       H    12.82166   -3.20540   14.30952
       O    13.29434   -3.96616   14.74870
      H1    13.45328   -3.65377   15.67521
       H    17.13222   -7.12472   14.22956
       O    16.63652   -7.96581   14.17493
      H1    15.79790   -7.78468   14.62683
       H    15.44693   -5.96287   16.43655
       O    15.94678   -5.19367   16.87266
      H1    16.67147   -4.91641   16.31784
       H    17.97682   -5.43549   12.20471
       O    17.39839   -4.89001   11.70606
      H1    16.95668   -4.42706   12.39032
       H    12.77156   -0.13521   16.01607
       O    13.73232    0.20132   16.06612
      H1    14.03386    0.22976   15.10289
       H    15.21290   -3.39469   14.33133
       O    15.95071   -3.28780   13.74413
      H1    16.22166   -2.36188   13.62053
       H    11.63800   -1.25178   13.90614
       O    11.79665   -2.14040   13.55734
      H1    12.14394   -1.91839   12.71412

