54
frame 10 | Written by MDAnalysis XYZWriter (release 2.4.3)
       H   -17.52248  -13.35375   -9.39517
       O   -17.63365  -14.11317   -9.97024
      H1   -16.81469  -14.64938   -9.96279
       H   -17.17284   -5.89537   -7.53960
       O   -17.88523   -6.49929   -7.17536
      H1   -18.32867   -6.07647   -6.40172
       H   -15.95409   -3.99454   -7.74384
       O   -15.84349   -4.80985   -8.29379
      H1   -16.15650   -4.40774   -9.11784
       H   -18.63021   -6.27231  -11.06075
       O   -18.33468   -5.60529  -10.40359
      H1   -17.74321   -6.15414   -9.91606
       H   -13.19959   -7.81184   -9.81716
       O   -14.05880   -7.33082   -9.83157
      H1   -13.79833   -6.43718  -10.13348
       H   -19.34698   -5.62253   -4.53846
       O   -18.78321   -4.97321   -4.99646
      H1   -19.34953   -4.21665   -5.13103
       H   -14.12982   -6.61503   -7.97162
       O   -13.68363   -6.58933   -7.13047
      H1   -14.06895   -5.84384   -6.66365
       H   -19.22466   -7.94239  -12.05717
       O   -18.73671   -7.28873  -12.60675
      H1   -19.36233   -6.69654  -13.07064
       H   -18.10519   -8.87222   -9.04225
       O   -18.56997   -8.93047   -8.19501
      H1   -18.39267   -8.09890   -7.69879
       H   -17.37315  -11.45679   -7.51175
       O   -17.62744  -12.16825   -8.14387
      H1   -18.36015  -12.67058   -7.79819
       H   -15.65193   -8.30686   -9.99701
       O   -16.42684   -8.90476  -10.22118
      H1   -15.85036   -9.58813  -10.56291
       H   -16.02242  -13.47827   -6.47232
       O   -15.98835  -12.74769   -5.85409
      H1   -16.86406  -12.41503   -5.80681
       H   -19.13355   -9.32025   -3.50621
       O   -19.52150   -8.86168   -4.30159
      H1   -20.05859   -8.10464   -3.88797
       H   -17.49732   -9.75258   -7.06758
       O   -16.97287  -10.18780   -6.38601
      H1   -16.10715   -9.79319   -6.57172
       H   -17.39450   -8.38540   -4.56203
       O   -16.56625   -7.97747   -4.33647
      H1   -16.41328   -7.29551   -4.94297
       H   -13.26216  -12.15064   -9.37137
       O   -12.76929  -11.48986   -8.89079
      H1   -13.38579  -11.16434   -8.21294
       H   -18.72195  -12.28411  -11.20261
       O   -19.34215  -11.60901  -10.97798
      H1   -20.02573  -11.61245  -11.67677
       H   -15.01495  -11.02349   -6.88860
       O   -14.24536  -10.47507   -6.75010
      H1   -13.55621  -10.94169   -6.33271

