54
frame 10 | Written by MDAnalysis XYZWriter (release 2.4.3)
       H     7.95187   16.65947    2.30805
       O     7.98628   16.86375    3.24956
      H1     7.16609   17.37185    3.46655
       H     7.17418   17.39365    8.06136
       O     7.06862   16.43419    7.80098
      H1     6.21476   16.36967    7.32961
       H    12.41826   18.36070    3.57890
       O    13.32361   18.18783    3.83800
      H1    13.90270   18.95216    3.71700
       H    10.54678   18.04826    9.76434
       O    10.40620   18.46481    8.85718
      H1     9.56185   18.93651    8.86008
       H    13.12140   16.85312    6.14926
       O    13.79017   16.11171    6.29044
      H1    14.62242   16.44167    5.95266
       H    12.70233   15.37764    2.19863
       O    11.97216   15.59993    1.57737
      H1    12.18753   16.45742    1.19382
       H     8.96070   14.26804    5.29132
       O     9.39786   13.51974    4.91119
      H1    10.32854   13.66115    4.70570
       H     6.99753   19.45276    8.78683
       O     7.72697   19.14619    8.20933
      H1     7.41279   19.41721    7.33878
       H     8.16844   16.18680    6.41452
       O     8.80283   16.11517    5.73317
      H1     8.38315   16.38426    4.87047
       H     5.21903   18.05350    3.96108
       O     5.93930   17.79317    4.58310
      H1     5.54472   17.07237    5.15072
       H     4.61535   13.35620    5.05789
       O     5.12807   13.21537    5.94893
      H1     5.33885   12.26785    5.79384
       H    10.88879   18.10280    4.87303
       O    10.51447   18.27387    3.99936
      H1     9.88739   17.56243    3.80072
       H    10.99575   17.65809    7.34330
       O    11.31183   17.23301    6.55685
      H1    10.53939   16.67609    6.18846
       H     8.01953   12.29860    6.47020
       O     7.88122   11.41300    6.77913
      H1     8.61805   11.34044    7.38489
       H     5.19532   15.01120    6.31045
       O     4.99206   15.97008    6.33877
      H1     4.01828   15.98383    6.44887
       H    10.18947   15.31434    1.72125
       O     9.27080   15.15597    1.44592
      H1     8.98114   14.34593    1.86263
       H     8.86270   12.36283    3.24722
       O     8.25505   12.25529    2.50864
      H1     8.77267   11.84344    1.81785
       H     5.00720   13.81281    2.68907
       O     4.30439   13.72262    3.27803
      H1     3.91373   12.89510    2.96606

