54
frame 10 | Written by MDAnalysis XYZWriter (release 2.4.3)
       H   -10.94912    7.35355   12.74555
       O   -11.29913    6.84175   13.49003
      H1   -12.11332    7.15323   13.79259
       H   -10.03515   13.69790   17.12519
       O    -9.35808   13.15689   17.41223
      H1    -9.58735   12.84165   18.30467
       H   -12.85158   12.81696   16.89257
       O   -13.23784   12.96687   16.00775
      H1   -12.58152   13.35819   15.37460
       H   -10.66431    3.98321   14.83881
       O   -10.25383    4.41025   14.04730
      H1   -10.51661    5.34769   13.87597
       H    -8.02022    6.02814   18.64388
       O    -8.42941    5.76009   19.48712
      H1    -8.99172    6.52261   19.73791
       H   -10.59674    9.56052   17.51564
       O   -11.48202    9.34646   17.91712
      H1   -11.63987    8.38006   17.78514
       H   -16.35272    7.56855   17.15654
       O   -16.32367    8.35577   17.71989
      H1   -16.82606    8.88390   17.12952
       H   -13.55750    8.41598   15.03749
       O   -13.52318    7.44764   14.90067
      H1   -13.05595    7.06836   15.65321
       H   -13.76723   11.39896   14.90604
       O   -14.13560   10.52700   14.75505
      H1   -14.21736   10.39633   13.80474
       H    -7.04589    9.95472   17.87870
       O    -7.56941    9.17837   17.92918
      H1    -7.95518    9.39342   18.83882
       H   -13.17937    5.15813   16.66315
       O   -12.78885    5.93261   17.07550
      H1   -11.92275    5.51392   17.30099
       H   -12.42113   10.89760   18.11955
       O   -12.76013   11.76410   18.36018
      H1   -12.08595   12.11004   18.93434
       H   -15.36291    6.31658   12.76540
       O   -15.10093    5.84585   13.54774
      H1   -14.39050    6.35093   14.02835
       H   -10.05626    8.49046   15.85494
       O   -10.09095    7.52392   16.13880
      H1   -10.63201    7.22980   15.38493
       H    -9.57858   11.10521   15.99173
       O    -9.45687   10.21688   16.28514
      H1    -8.76441   10.14589   16.97542
       H   -13.50403    4.20085   19.46175
       O   -12.67317    3.68604   19.69667
      H1   -11.93132    4.06151   19.17627
       H   -10.12629    3.47662   18.21346
       O   -10.35546    4.43595   18.14670
      H1    -9.73071    4.82163   18.74255
       H    -7.42146    7.40748   17.42075
       O    -7.67566    6.70226   16.78407
      H1    -8.57186    6.93000   16.60144

