54
frame 1 | Written by MDAnalysis XYZWriter (release 2.4.3)
       H    17.02524   -1.55193   12.02011
       O    16.61501   -1.94140   12.84554
      H1    15.88868   -1.35138   13.12926
       H    11.94038   -4.90210    8.34176
       O    12.60205   -4.29619    8.81295
      H1    13.00909   -3.81802    8.13105
       H    11.96851    1.36457   13.77667
       O    12.39589    0.55567   14.11142
      H1    12.97401    0.15876   13.44201
       H    14.97562    0.81703   12.22792
       O    14.70404   -0.04718   12.50140
      H1    14.89222   -0.61025   11.69847
       H    14.86745   -1.26616    9.59808
       O    14.87744   -1.82974   10.39655
      H1    15.56875   -2.50901   10.16746
       H    11.45598   -4.72610   13.74561
       O    11.66147   -3.82308   13.99614
      H1    11.84310   -3.46789   13.11951
       H    15.78561   -0.49668    7.11335
       O    15.18962   -0.75586    7.77402
      H1    14.90471   -1.62623    7.47498
       H     9.80653    0.35838   13.20346
       O     8.92881    0.27738   13.60701
      H1     8.19289    0.83209   13.22077
       H     9.49694   -0.53370    8.65765
       O     8.83318    0.13018    8.98941
      H1     8.24754   -0.45633    9.48736
       H    11.34566   -1.80429    8.73594
       O    10.68292   -1.66802    8.04039
      H1    10.24914   -2.49183    7.72954
       H    12.14730   -0.03518   10.70765
       O    12.25698    0.84174   10.34485
      H1    11.50792    1.02705    9.75371
       H     9.88443    3.21692   11.80851
       O     9.18070    3.46916   11.19923
      H1     8.30428    3.20216   11.58551
       H    10.98931   -0.42055    6.11835
       O    10.80973    0.17050    5.33284
      H1    10.13354   -0.25252    4.80895
       H    11.32970   -2.79170   10.72435
       O    11.87129   -1.98897   10.62713
      H1    12.83454   -2.16447   10.65034
       H    11.96336    2.06690   11.66825
       O    11.65031    2.65758   12.35876
      H1    12.16382    3.47693   12.28875
       H    12.55869    2.74679    7.91270
       O    13.39606    2.28948    7.97045
      H1    13.20346    1.58096    8.61650
       H     9.90178    2.92438    9.55395
       O    10.28338    2.22354    9.00663
      H1     9.56619    1.53214    9.04814
       H     9.68171   -4.05540   10.04505
       O    10.05105   -3.98677   10.89988
      H1     9.27864   -3.99602   11.52626

