54
frame 10 | Written by MDAnalysis XYZWriter (release 2.4.3)
       H   -15.98576  -17.77016   15.79372
       O   -16.52616  -17.95801   15.03117
      H1   -16.28422  -18.86371   14.68596
       H   -10.06300  -18.85193   16.85601
       O   -10.48921  -19.68754   16.70237
      H1   -10.00897  -20.20016   16.07558
       H   -12.16761  -12.33249   13.13571
       O   -12.32590  -13.18129   12.62498
      H1   -13.17774  -13.57844   12.89377
       H   -11.12034  -15.18574   19.89171
       O   -10.80406  -14.51294   19.23564
      H1   -10.66166  -13.63278   19.70900
       H   -15.55721  -18.04229   11.69801
       O   -16.26645  -17.72589   12.23926
      H1   -15.98480  -17.63668   13.14780
       H   -13.94786  -20.24694   17.63658
       O   -14.51346  -19.51645   17.68235
      H1   -14.11336  -18.87842   17.14071
       H   -11.95835  -14.51941   16.23379
       O   -12.34147  -14.20889   17.08340
      H1   -11.67779  -14.30603   17.77537
       H   -17.66432  -17.44401   20.13409
       O   -17.99615  -17.29483   19.22152
      H1   -17.24463  -16.85637   18.68212
       H   -11.90029  -16.21790   11.42283
       O   -12.03922  -16.74797   12.18983
      H1   -11.81502  -16.19345   12.96996
       H    -8.55549  -15.74897   15.68038
       O    -8.94072  -16.10006   14.88960
      H1    -8.21534  -16.00233   14.26247
       H   -15.33770  -14.44315   12.50180
       O   -14.79046  -14.02795   13.17760
      H1   -14.91903  -14.41351   14.04448
       H   -17.24335  -18.70872   19.19190
       O   -16.75781  -19.58792   19.03666
      H1   -16.01827  -19.50032   18.44404
       H   -11.48851  -14.30004   13.83236
       O   -11.46161  -15.03783   14.42844
      H1   -10.50228  -15.09804   14.62759
       H   -10.18271  -16.25918   17.63650
       O   -10.46603  -16.99993   17.12021
      H1   -10.02148  -16.86739   16.29190
       H   -13.52166  -16.83878   15.51478
       O   -13.21464  -17.72276   15.80414
      H1   -12.35263  -17.72067   16.28422
       H   -17.08943  -14.92570   17.39736
       O   -16.91801  -15.84898   17.20088
      H1   -17.63113  -16.20368   16.67554
       H   -12.56480  -18.86845   14.41832
       O   -12.39604  -19.25446   13.51022
      H1   -12.33234  -18.45673   12.99551
       H   -13.81524  -14.76574   16.20848
       O   -14.55326  -15.14335   15.65021
      H1   -15.19057  -15.48486   16.24782

