54
frame 10 | Written by MDAnalysis XYZWriter (release 2.4.3)
       H     9.58342  -13.80155   -1.50107
       O     9.40409  -13.00438   -1.98965
      H1    10.12802  -12.85864   -2.59781
       H     8.22598  -13.95376   -3.58360
       O     8.14842  -14.79104   -4.07152
      H1     8.41058  -14.54000   -4.95685
       H     9.27849  -10.54662   -4.45652
       O     9.82639  -11.33175   -4.46272
      H1    10.30903  -11.19436   -5.28839
       H     6.28744  -10.78097    1.71243
       O     6.79270  -11.51000    1.36761
      H1     7.37925  -11.04258    0.72465
       H     8.56778   -9.75805   -0.77830
       O     8.67329  -10.59406   -0.30753
      H1     8.91638  -11.24035   -0.95830
       H     7.58157  -13.21844   -1.38306
       O     6.68507  -13.30640   -1.18999
      H1     6.50593  -12.74239   -0.39031
       H     4.05666  -11.63629   -5.03496
       O     3.87467  -12.12675   -5.84431
      H1     3.90367  -13.06658   -5.63771
       H     8.66357   -5.53907   -4.52166
       O     9.08410   -6.30840   -4.83868
      H1     9.00373   -6.22839   -5.76968
       H     4.60064   -8.07378   -6.41550
       O     3.68820   -7.96851   -6.04411
      H1     3.11908   -8.41204   -6.65988
       H     9.39051   -8.06586   -7.16531
       O     8.99253   -7.21326   -7.48912
      H1     9.41222   -6.96539   -8.29951
       H     5.09140   -8.33732   -1.49274
       O     4.62165   -7.71283   -0.91199
      H1     4.44982   -6.92651   -1.48715
       H     9.53639   -7.48730   -0.40460
       O     8.58467   -7.72299   -0.38826
      H1     8.14463   -6.90217   -0.61010
       H     4.43426   -9.58099   -4.67963
       O     4.00691  -10.10134   -3.98737
      H1     3.32525   -9.46846   -3.75252
       H     6.95406   -9.43842   -7.11390
       O     6.47395   -9.04335   -6.41077
      H1     6.95025   -9.38685   -5.65634
       H     8.23493   -8.69392   -3.73696
       O     7.73377   -9.48191   -4.10023
      H1     7.16221   -9.85027   -3.39412
       H    12.39451  -11.36809   -2.61305
       O    11.96908  -10.52822   -2.86088
      H1    11.11516  -10.68948   -3.28056
       H    11.52841   -7.93992   -4.24861
       O    10.90151   -7.73193   -3.56118
      H1    10.24734   -7.26532   -4.05549
       H     5.99929  -11.27659   -1.91282
       O     5.94986  -10.40385   -2.22625
      H1     5.11469  -10.36407   -2.71070

