54
frame 10 | Written by MDAnalysis XYZWriter (release 2.4.3)
       H   -13.71267   15.53516    3.51432
       O   -13.86890   15.58034    4.48825
      H1   -14.50344   16.31848    4.55193
       H    -9.78089   16.61740    6.94056
       O    -9.69712   15.89334    7.56870
      H1    -9.64710   15.14808    6.95017
       H   -10.19431   16.66978   12.02262
       O   -10.04495   15.72390   12.14477
      H1   -10.63949   15.28665   11.48093
       H   -10.61929   19.35987    7.22349
       O    -9.84929   18.75025    7.31997
      H1    -9.50387   18.83011    6.41038
       H    -7.32794   14.33632    7.09368
       O    -7.19593   15.20758    6.68811
      H1    -7.92791   15.65200    7.18967
       H   -13.22034   17.12578    9.22622
       O   -13.95253   17.81348    9.40199
      H1   -14.21525   17.66068   10.30624
       H   -13.92546   17.39116    2.74456
       O   -14.49671   17.99922    3.18670
      H1   -15.27296   17.96960    2.67117
       H    -8.51576   18.09074    4.74072
       O    -7.90529   18.77922    5.17236
      H1    -7.44941   18.41234    5.94202
       H   -11.48447   16.86924    1.93145
       O   -11.44263   17.58620    2.59214
      H1   -10.88245   17.21366    3.25383
       H   -15.32689   17.49409    6.22319
       O   -16.02119   17.00460    5.74782
      H1   -16.20171   17.59385    5.02419
       H    -9.68236   16.06520    4.50479
       O    -9.91114   16.98079    4.68993
      H1   -10.79226   16.96904    5.08861
       H    -5.58878   18.58058    7.43566
       O    -6.58278   18.48162    7.52794
      H1    -6.92180   19.39415    7.66721
       H   -12.66740   14.83126    8.63280
       O   -12.31761   15.68786    8.49047
      H1   -11.33342   15.57882    8.27916
       H   -11.85521   13.50550    5.65313
       O   -10.97368   13.84896    5.93894
      H1   -10.52481   13.30479    6.57898
       H   -13.85563   18.45765    7.89868
       O   -13.87089   18.80814    6.95682
      H1   -13.30534   18.22890    6.41144
       H    -9.53738   18.88666   11.80221
       O   -10.16931   18.49362   12.41351
      H1   -10.76699   19.15641   12.69609
       H   -12.10064   16.46169    6.89218
       O   -12.15672   16.89824    6.04350
      H1   -12.57106   16.31443    5.42157
       H    -4.93769   18.71263   10.27739
       O    -5.84325   18.35233   10.12095
      H1    -6.01103   18.31789    9.15623

