54
frame 10 | Written by MDAnalysis XYZWriter (release 2.4.3)
       H   -13.37044  -11.26583  -18.58230
       O   -14.12059  -11.87009  -18.80817
      H1   -14.97168  -11.43494  -18.47898
       H   -12.39424  -13.39692  -17.54786
       O   -12.59389  -13.01398  -16.70886
      H1   -11.84194  -12.44699  -16.43155
       H    -8.22553  -18.72153  -14.86925
       O    -8.13905  -17.78721  -14.84986
      H1    -7.47968  -17.64946  -14.07745
       H   -12.67569  -17.71908  -18.20350
       O   -13.57683  -18.05927  -18.03715
      H1   -14.06489  -18.19030  -18.85469
       H    -9.49413  -14.38164  -14.92478
       O    -9.56353  -13.60051  -14.29148
      H1    -8.88279  -13.77600  -13.63709
       H   -13.06764  -15.65330  -14.79534
       O   -12.45065  -14.92410  -14.76508
      H1   -12.44949  -14.40728  -15.53749
       H   -18.29085  -13.98238  -18.13404
       O   -17.76624  -14.55995  -17.56386
      H1   -18.39104  -15.02211  -17.02450
       H   -15.83776  -13.27888  -16.59748
       O   -15.21667  -13.51127  -15.88771
      H1   -14.36920  -13.02278  -16.02613
       H   -13.76836  -18.58907  -16.04428
       O   -14.40451  -18.77715  -15.29543
      H1   -13.86468  -19.34624  -14.71180
       H   -14.75429  -13.70016  -18.71135
       O   -15.18096  -14.52069  -19.05772
      H1   -15.95168  -14.74321  -18.58442
       H   -17.36599  -16.53658  -17.70902
       O   -16.91256  -17.37590  -17.47980
      H1   -15.98689  -17.14104  -17.19162
       H   -10.42002  -17.28109  -18.29330
       O   -10.97364  -16.51465  -18.01340
      H1   -10.50160  -16.16967  -17.20178
       H   -14.45857  -18.49223  -10.94602
       O   -15.00318  -17.78652  -11.22578
      H1   -14.78869  -17.47816  -12.13830
       H    -8.50025  -14.96849  -16.70497
       O    -9.15173  -15.47716  -16.17638
      H1    -8.64618  -16.20076  -15.78852
       H   -11.00320  -16.24904  -14.23311
       O   -10.60528  -17.01534  -13.84242
      H1    -9.77417  -17.19534  -14.33531
       H   -18.82484  -19.06756  -15.23011
       O   -19.09764  -18.67215  -14.40354
      H1   -19.30250  -19.39634  -13.83167
       H   -14.57609  -17.44282  -14.29747
       O   -14.65831  -16.70555  -13.66400
      H1   -15.59093  -16.53936  -13.63177
       H   -10.28444  -19.57326  -17.06322
       O   -10.38370  -19.30311  -17.98447
      H1    -9.58717  -19.61123  -18.40149

