54
frame 10 | Written by MDAnalysis XYZWriter (release 2.4.3)
       H   -16.27948    4.77876    7.24169
       O   -15.77295    4.22896    6.65134
      H1   -14.99601    4.02816    7.21782
       H   -11.36393    0.94797   12.22262
       O   -11.69646    0.12040   12.61207
      H1   -11.73998    0.31790   13.57810
       H   -16.80313    2.75467    7.02778
       O   -17.45951    2.06928    7.21621
      H1   -18.15602    2.57216    7.64861
       H   -13.55253    2.32042   10.34094
       O   -12.65189    2.35076   10.00378
      H1   -12.44483    1.57249    9.49425
       H   -10.96043    3.00793    6.89939
       O   -10.00696    2.92011    6.71837
      H1    -9.48839    3.25678    7.41748
       H   -15.70857    2.80532   12.85986
       O   -16.03471    3.16460   13.70079
      H1   -15.64352    4.03125   13.79024
       H   -18.94408    2.65240   13.91475
       O   -18.56914    2.62710   13.03213
      H1   -17.64439    2.78491   13.08006
       H   -14.85945    1.03928   11.99411
       O   -14.97085    1.90036   11.52805
      H1   -15.79514    1.92731   10.98152
       H    -9.47077    1.68598    9.43984
       O    -9.42347    0.81997    9.83087
      H1    -9.42794    0.96259   10.79064
       H   -16.98963    1.30051    8.57615
       O   -16.74073    1.26817    9.56311
      H1   -15.91246    0.72599    9.53630
       H    -8.29829    5.11262   12.04320
       O    -8.37864    4.13743   11.83416
      H1    -9.25464    3.83643   12.04708
       H   -13.15340   -2.34427   11.88120
       O   -13.15466   -2.31006   10.90864
      H1   -13.84933   -1.74488   10.58343
       H   -14.77685   -1.17525   12.85154
       O   -14.37161   -0.32536   13.03591
      H1   -13.49472   -0.43394   12.56083
       H   -12.08216   -0.46631    8.11585
       O   -12.66947    0.17396    7.77721
      H1   -12.98452   -0.27570    6.98215
       H   -14.07590   -0.15235    8.81566
       O   -14.74719   -0.34027    9.49997
      H1   -15.42930   -0.85324    9.08399
       H   -11.64757    2.61065   11.19858
       O   -10.83436    2.62745   11.76773
      H1   -11.15083    3.14564   12.52800
       H   -11.66220   -1.38257   10.43245
       O   -10.87695   -1.44329    9.87794
      H1   -10.48484   -0.53538    9.79146
       H   -12.82584    4.62930    7.69499
       O   -13.24693    3.76736    7.78741
      H1   -12.86928    3.41099    8.59111

