54
frame 11 | Written by MDAnalysis XYZWriter (release 2.4.3)
       H    -8.74220   18.16139   -7.17378
       O    -8.73523   18.24618   -6.19167
      H1    -9.60652   18.54340   -5.90535
       H   -15.04457   16.96793  -12.04181
       O   -15.35914   17.68394  -12.59960
      H1   -15.56761   18.40812  -11.97756
       H   -11.69406   19.44403   -4.73789
       O   -11.42153   18.78694   -5.33667
      H1   -11.78271   19.06600   -6.16219
       H   -10.61683   16.38424  -10.09415
       O   -11.25247   16.64852  -10.80873
      H1   -10.68428   17.26586  -11.35767
       H    -7.44336   15.31626  -11.40725
       O    -8.23292   15.84126  -11.30623
      H1    -8.20715   16.24757  -10.43341
       H    -9.76513   18.11026  -13.37987
       O    -9.50970   17.98414  -12.46262
      H1    -9.00570   17.17613  -12.52491
       H    -8.69326   18.51764   -9.68470
       O    -8.46658   17.93805   -8.94067
      H1    -9.14170   17.24402   -8.94663
       H    -9.97180   15.71218   -7.53246
       O   -10.47139   15.99788   -8.29324
      H1   -11.35209   16.06367   -7.95348
       H    -6.29748   19.26573  -11.37932
       O    -7.04569   19.44007  -11.99578
      H1    -7.53441   18.54407  -12.12057
       H   -15.00494   15.98548   -9.92975
       O   -15.01028   15.43823  -10.71470
      H1   -14.12012   15.21800  -10.92155
       H   -13.69840   16.37013   -7.29785
       O   -12.89848   15.80095   -7.15998
      H1   -12.49946   16.02099   -6.29553
       H   -15.38966   17.74029   -8.01632
       O   -15.22187   16.77041   -8.01900
      H1   -15.74680   16.34692   -7.28882
       H   -11.48588   16.80206  -15.77323
       O   -11.72315   17.22649  -14.93515
      H1   -12.61636   17.64750  -15.06022
       H   -10.86796   18.80316  -15.05559
       O   -10.49349   19.64388  -15.37606
      H1   -10.85135   20.29345  -14.71891
       H   -11.11144   19.98845  -10.55964
       O   -11.75454   19.37439  -10.19702
      H1   -11.52102   18.60193  -10.67256
       H   -12.34533   14.33733  -12.98427
       O   -12.42717   14.13856  -12.02598
      H1   -12.24709   14.95108  -11.50831
       H   -14.55266   17.80526  -15.75481
       O   -14.10875   18.37169  -15.07448
      H1   -14.54289   18.10508  -14.24932
       H   -10.93384   13.74230  -11.60468
       O   -10.07547   13.59514  -11.19477
      H1    -9.56993   14.43724  -11.29012

