54
frame 10 | Written by MDAnalysis XYZWriter (release 2.4.3)
       H     2.73493    9.43099   -3.01649
       O     2.50953    9.56159   -3.97438
      H1     3.12410    8.91968   -4.46111
       H     4.24792    6.97905   -4.37678
       O     4.02036    7.63171   -5.02358
      H1     3.96292    7.20415   -5.89089
       H     3.39724    9.95463  -10.16283
       O     4.16347    9.67884  -10.68635
      H1     4.93922   10.21485  -10.35170
       H     5.40294    3.76473   -8.45969
       O     4.61912    4.28064   -8.63388
      H1     4.05566    4.13139   -7.87077
       H     1.41919    6.60991   -8.64668
       O     1.70258    7.55042   -8.78509
      H1     1.23612    8.12017   -8.14523
       H     3.60786    7.01435  -11.25961
       O     3.79301    6.47366  -12.05692
      H1     2.99375    6.38410  -12.56414
       H     5.00679   11.04529   -2.94728
       O     4.92121   10.90053   -3.87355
      H1     4.07783   10.43447   -4.06582
       H     7.40809    2.50470   -7.50856
       O     7.18314    3.24292   -8.09464
      H1     7.82858    3.93653   -7.87320
       H    10.17696    9.15141   -6.41936
       O    10.08941    9.47371   -7.35325
      H1     9.62716    8.80507   -7.92698
       H     8.13190    6.37101   -6.33438
       O     8.53311    5.71870   -6.91346
      H1     9.51585    5.67994   -6.76491
       H     8.61856    6.96043   -8.23556
       O     8.62784    7.80278   -8.66278
      H1     7.71312    8.13608   -8.46054
       H     6.49494    9.45694   -6.16164
       O     7.11263    9.92566   -5.57632
      H1     6.55504   10.34831   -4.94455
       H     6.87580   11.11402   -9.14335
       O     6.45498   11.07299  -10.01835
      H1     6.56002   11.93877  -10.35529
       H     5.49004    9.10263   -8.63852
       O     6.01848    8.61660   -7.95011
      H1     5.43511    7.92533   -7.70401
       H     6.29481    7.14789   -5.24497
       O     7.29578    7.12506   -5.04049
      H1     7.55754    8.02362   -5.03898
       H     7.45989   12.49628   -6.85271
       O     7.93199   11.95055   -7.46876
      H1     8.21825   11.16997   -6.99945
       H     2.10901   10.81568   -7.94219
       O     2.27493   10.82703   -8.88923
      H1     2.07634   11.73878   -9.06177
       H     4.08284    6.05304   -8.31663
       O     4.03987    6.79633   -7.75102
      H1     3.26068    7.28335   -8.07390

