54
frame 10 | Written by MDAnalysis XYZWriter (release 2.4.3)
       H     7.12841    3.80484    4.57433
       O     7.00046    2.93048    4.96633
      H1     7.81002    2.57113    5.38061
       H    15.00557    2.97749    2.19233
       O    15.33887    3.65673    1.56994
      H1    16.03877    3.29056    0.99898
       H    13.57311    4.80023    5.34478
       O    13.34332    3.91710    5.60040
      H1    13.81693    3.89301    6.46208
       H    11.93607    3.21269    6.60169
       O    11.21453    3.30845    7.24665
      H1    10.60557    2.68684    6.90156
       H     9.10474   -3.14674    4.15810
       O     9.03028   -2.29306    3.63182
      H1     8.10894   -2.04301    3.77539
       H    13.91413    2.52132    4.45307
       O    14.35173    2.02837    3.75891
      H1    13.95225    1.11153    3.79387
       H    11.51255   -1.47630    0.90180
       O    11.06720   -1.95568    0.15329
      H1    10.91415   -2.86393    0.41624
       H    11.41703    5.85704    5.02521
       O    10.71224    5.41080    5.44675
      H1    11.03164    4.71611    6.02713
       H     8.86483    1.51333    7.28459
       O     9.06955    1.77438    6.37425
      H1     9.41304    1.03586    5.87568
       H     7.74830    0.97556    2.79659
       O     6.82164    0.98604    2.98951
      H1     6.69370    1.64221    3.67746
       H    11.35284    0.92192   -0.90026
       O    10.90268    1.26849   -0.10309
      H1    10.36581    2.01568   -0.46800
       H    10.54989    2.99037    2.95692
       O    11.38109    2.49347    2.91017
      H1    12.02412    3.04922    3.33926
       H    12.49298   -3.00322    2.57238
       O    12.85026   -2.12397    2.30655
      H1    12.52214   -1.52813    3.02122
       H    15.47313   -1.54707    1.27959
       O    15.08005   -0.61709    1.23842
      H1    14.25617   -0.73344    1.70857
       H    15.39252   -1.44263    4.36268
       O    14.76215   -2.21454    4.43991
      H1    14.18744   -2.19017    3.68884
       H    11.78006    0.87890    3.58699
       O    12.28242    0.15121    3.98774
      H1    11.73041   -0.28743    4.68492
       H     9.77872   -0.89455    6.39239
       O    10.28653   -0.64036    5.58187
      H1     9.94414   -1.29788    4.94747
       H    10.02599    0.72452    1.18326
       O     9.39322    0.32355    1.77690
      H1     9.70369   -0.60770    1.95164

