57
frame 0 | Written by MDAnalysis XYZWriter (release 2.4.3)
       H    19.10109  -17.19724   -6.99434
       O    18.51737  -16.93226   -7.68031
      H1    17.67938  -17.19201   -7.33015
       H    12.54887  -14.13271   -2.11010
       O    12.81367  -14.49067   -2.99443
      H1    13.21526  -15.35486   -2.92358
       H    16.78802  -16.11478   -5.67797
       O    17.03866  -16.96603   -5.28008
      H1    16.34927  -17.54731   -5.58216
       H    13.78893  -18.00643   -2.68889
       O    13.86092  -17.20409   -2.18009
      H1    13.20333  -17.22459   -1.45392
       H    18.15840  -19.88273   -5.35703
       O    19.05110  -19.85221   -4.98911
      H1    19.17422  -18.86958   -4.81869
       H    13.06298  -19.31008   -8.90128
       O    13.82885  -19.44828   -9.49657
      H1    13.96303  -18.52149   -9.86887
       H    11.57216  -18.01457   -5.77672
       O    12.10484  -17.80435   -5.05461
      H1    12.85748  -17.30142   -5.51909
       H    13.41272  -15.33118   -6.24156
       O    14.16347  -15.88573   -6.49196
      H1    14.18966  -15.86674   -7.44381
       H    16.19333  -14.60045   -2.55941
       O    16.18573  -13.62599   -2.56235
      H1    15.41925  -13.36497   -3.08516
       H    15.61428  -14.60631   -6.02132
       O    16.25572  -13.89807   -6.24171
      H1    16.12790  -13.22240   -5.57397
       H    16.29887  -15.29322   -9.33603
       O    15.48876  -14.79247   -9.23175
      H1    15.67628  -14.12463   -8.53115
       H    18.27557  -13.58550   -5.87236
       O    19.12471  -14.02749   -5.80936
      H1    19.13527  -14.70186   -6.50156
       H    19.19742  -17.58950   -9.42164
       O    19.48207  -17.53820  -10.34660
      H1    19.98781  -16.71470  -10.31314
       H    19.18025  -13.54629   -4.05488
       O    18.99121  -12.91983   -3.28238
      H1    18.06928  -13.09789   -3.01723
       H    16.45543  -16.61611    0.33022
       O    15.94608  -17.40692    0.40475
      H1    16.17005  -18.02056   -0.33010
       H    17.04113  -16.58481   -3.59477
       O    16.72783  -16.48804   -2.67892
      H1    15.84185  -16.90759   -2.64172
       H    17.99204  -17.99076   -1.67526
       O    18.81910  -17.82432   -1.19724
      H1    19.37601  -18.57964   -1.34016
       H    18.22412  -18.53589  -10.91188
       O    17.47689  -19.02096  -11.28162
      H1    17.02162  -19.34199  -10.49490
       H    14.42892  -16.17651  -10.11540
       O    13.98888  -16.98762  -10.44071
      H1    14.09951  -17.01438  -11.35052

