57
frame 1 | Written by MDAnalysis XYZWriter (release 2.4.3)
       H     4.35122   -8.74843    3.81817
       O     5.07490   -8.54632    3.24469
      H1     4.65943   -8.12095    2.47615
       H     5.52984   -9.65061    8.76683
       O     5.62701   -9.86007    9.72482
      H1     6.57518   -9.79997    9.97514
       H     8.50753   -9.67635    6.40418
       O     7.77870   -9.73504    5.75873
      H1     8.33163   -9.76865    4.90937
       H     5.91429   -6.95085    3.84585
       O     6.23463   -6.06475    3.66165
      H1     5.41790   -5.45830    3.92748
       H     7.21892   -6.27977    5.08621
       O     7.76895   -6.84066    5.71954
      H1     7.39691   -7.73005    5.66392
       H     5.12472   -4.33869    8.80402
       O     5.83196   -4.51498    9.42113
      H1     5.41067   -5.12892   10.04547
       H     7.51399   -5.26646    2.82516
       O     8.29723   -4.85315    2.46878
      H1     7.97130   -4.14743    1.90619
       H     3.88166   -4.27796    5.57334
       O     4.07806   -4.13020    4.63203
      H1     3.22003   -4.30876    4.11827
       H     9.38213   -6.95959    5.08736
       O    10.34958   -6.94182    4.99215
      H1    10.57849   -7.66382    4.40594
       H     7.19256   -5.41270    8.37753
       O     8.10956   -5.66250    8.10416
      H1     7.96489   -6.03614    7.22169
       H     4.70998   -9.06670    6.58041
       O     5.13135   -9.80917    7.06603
      H1     6.01185   -9.79926    6.71658
       H     9.27277   -9.82650    2.35262
       O     9.35340  -10.08639    3.29047
      H1    10.24142  -10.23606    3.58153
       H     9.62630   -4.35647    3.70843
       O    10.30434   -4.08359    4.35036
      H1    10.72080   -4.96195    4.63228
       H    12.75419   -8.14795    7.50184
       O    12.60832   -8.09703    6.51239
      H1    11.71629   -7.77332    6.45847
       H     7.79326   -2.24119    6.04348
       O     7.42654   -1.68135    5.35019
      H1     8.13299   -1.48013    4.64349
       H     9.65329   -7.07529    8.47967
       O    10.59143   -7.29360    8.59704
      H1    10.78715   -6.96798    9.45788
       H    10.40976   -6.41184    0.60611
       O     9.40788   -6.45193    0.44525
      H1     9.04912   -6.13450    1.32822
       H     8.68343   -4.40842    7.35988
       O     9.01987   -3.61547    6.82450
      H1     9.38638   -3.87223    6.00531
       H     9.93956   -9.13627    8.45353
       O     9.37494   -9.79217    8.06165
      H1     9.83528  -10.62474    8.18943

