57
frame 2 | Written by MDAnalysis XYZWriter (release 2.4.3)
       H    17.33086    4.22622    6.62970
       O    17.08463    3.63263    7.38176
      H1    16.20894    3.97290    7.69095
       H    17.08223    5.62004    5.13625
       O    17.75926    4.93915    5.13324
      H1    18.60534    5.48381    5.05865
       H    13.39968    3.43926    8.47949
       O    14.29739    3.82319    8.56667
      H1    14.07919    4.76172    8.64339
       H    12.73983    1.96626    4.63710
       O    13.58273    2.37677    4.46877
      H1    13.25274    3.26423    4.26556
       H    14.69933   -1.37612    8.85844
       O    14.95034   -1.81555    9.66350
      H1    15.66642   -2.42210    9.61730
       H    16.69053    1.42061    2.51317
       O    17.54436    1.71402    2.32149
      H1    18.00844    1.42253    3.19400
       H    16.57594    0.32980    5.08124
       O    16.93237   -0.35756    4.44781
      H1    16.36395   -0.34430    3.71065
       H    18.39450    1.61300    9.01260
       O    18.47516    2.53376    9.30234
      H1    18.12200    2.98439    8.53349
       H    17.59087   -1.85953    5.20872
       O    17.63573   -2.77083    5.53222
      H1    17.91090   -2.75730    6.42924
       H    13.51798    0.32128    7.25617
       O    13.76266   -0.61657    7.55405
      H1    13.98611   -1.13465    6.74335
       H    18.24801   -0.62042    7.92270
       O    17.75746    0.11603    8.23961
      H1    16.91957    0.14412    7.79601
       H    15.21083    7.26052    6.96639
       O    15.84740    7.01297    6.24157
      H1    15.57489    7.52170    5.49389
       H    16.35010   -0.79838   10.58068
       O    17.04055   -0.21538   10.92020
      H1    17.70947   -0.17196   10.19008
       H    19.86094    1.26672    6.64234
       O    19.67425    2.18138    6.38560
      H1    18.71570    2.28063    6.59844
       H    13.56844   -1.76501    4.10369
       O    13.43152   -0.90365    3.66417
      H1    12.56416   -0.57794    3.90209
       H    15.21600    2.60234    9.88366
       O    15.29547    2.01931   10.69637
      H1    16.01131    1.40405   10.51079
       H    17.69553    3.38004    2.40720
       O    17.80795    4.32984    2.53038
      H1    17.71514    4.41716    3.49884
       H    16.08330    2.08866    6.60342
       O    15.77804    1.21792    6.41440
      H1    14.96777    1.43896    5.93263
       H    11.47247    2.49744    7.64689
       O    12.13961    1.86489    7.95315
      H1    11.85005    1.52169    8.83096

