57
frame 1 | Written by MDAnalysis XYZWriter (release 2.4.3)
       H   -12.08159  -12.22561  -17.45570
       O   -12.29408  -12.78969  -16.65008
      H1   -11.58870  -13.43476  -16.46185
       H   -10.27275  -11.33633  -18.45448
       O   -11.09495  -11.66710  -18.87130
      H1   -11.24947  -11.11215  -19.67364
       H   -14.54723  -15.37337  -17.72583
       O   -14.64252  -15.91154  -18.52546
      H1   -13.77300  -16.24110  -18.67439
       H   -16.44061  -12.19629  -16.49104
       O   -16.86785  -13.06593  -16.14832
      H1   -17.16071  -12.78368  -15.27687
       H   -13.60537   -9.83835  -14.98532
       O   -14.22969   -9.89116  -14.21820
      H1   -15.00352   -9.41411  -14.49441
       H   -15.57540   -7.75933  -17.60669
       O   -16.41497   -7.39264  -17.40765
      H1   -17.02058   -7.73861  -18.09531
       H   -12.94190  -10.29209  -17.45383
       O   -12.50381   -9.69825  -16.80480
      H1   -11.58258   -9.98625  -16.72526
       H   -13.54642  -11.12663  -13.32860
       O   -12.99655  -11.58884  -12.70558
      H1   -13.11030  -11.10827  -11.84952
       H   -18.90702   -8.64676  -19.80566
       O   -18.60883   -8.44209  -18.89489
      H1   -18.73559   -9.26348  -18.39549
       H   -16.05999  -11.11987  -18.07589
       O   -15.87992  -10.70931  -17.22379
      H1   -16.59371  -10.08201  -17.03806
       H   -13.72210  -13.85361  -16.33935
       O   -14.46623  -14.47383  -16.03907
      H1   -15.25363  -13.93724  -16.12230
       H   -13.90645   -5.03323  -17.08437
       O   -13.89620   -5.66179  -16.36749
      H1   -12.98931   -5.93050  -16.15933
       H   -12.81604   -8.16652  -13.59649
       O   -12.14765   -7.54343  -13.92396
      H1   -11.41658   -8.13828  -14.11355
       H   -13.77945  -13.22085  -12.85368
       O   -14.32027  -13.94913  -13.25238
      H1   -14.21836  -13.93773  -14.22277
       H   -17.21092   -4.06238  -17.47759
       O   -16.58450   -4.72029  -17.83190
      H1   -16.70660   -5.51462  -17.34271
       H   -17.89888  -10.62262  -13.62715
       O   -18.49018  -11.40771  -13.62199
      H1   -18.04802  -11.82533  -12.90947
       H   -12.61588   -8.24806  -18.04828
       O   -12.80828   -7.61625  -18.81258
      H1   -12.41158   -6.78254  -18.49120
       H   -18.42725   -9.21121  -15.57052
       O   -17.46620   -9.13888  -15.62956
      H1   -17.10697   -8.30345  -16.10193
       H   -19.36883  -11.56991  -17.84427
       O   -18.94174  -11.16298  -18.59281
      H1   -18.10015  -11.65915  -18.63932

