57
frame 1 | Written by MDAnalysis XYZWriter (release 2.4.3)
       H     6.07847   -1.60007    3.75223
       O     5.57701   -1.36359    2.98916
      H1     5.95952   -0.54034    2.74403
       H     5.56383    3.50708   10.56286
       O     4.69198    3.36585   10.99112
      H1     4.69938    2.50897   11.50292
       H     7.13390    3.50152    4.83915
       O     7.84062    2.83207    4.79338
      H1     7.58319    2.22994    5.55825
       H     2.81476    3.54855    8.42766
       O     3.75078    3.67551    8.29300
      H1     4.13465    3.53488    9.19941
       H     3.48562    5.10212    5.23628
       O     2.56721    5.21637    5.41808
      H1     2.13630    4.95622    4.57662
       H     3.31214   -2.09059    4.43880
       O     2.55013   -1.54835    4.52486
      H1     2.94058   -0.62734    4.60050
       H     5.96994    4.88487    4.08142
       O     5.50142    4.74976    4.90783
      H1     5.94388    5.28998    5.62151
       H     9.25034   -0.64958    2.71126
       O     8.90897   -0.44711    3.58156
      H1     8.33139    0.35897    3.52855
       H     2.74922   -1.03444   10.25275
       O     3.23218   -0.83549    9.41714
      H1     4.08840   -0.80415    9.84755
       H     7.05705    0.25450    6.09937
       O     7.02140    1.00454    6.72743
      H1     7.56669    0.91407    7.47599
       H     6.26908    1.63212    2.15337
       O     6.33521    1.40387    3.07498
      H1     6.90077    2.06177    3.51383
       H     9.49694   -0.53370    8.65765
       O     8.83318    0.13018    8.98941
      H1     8.24754   -0.45633    9.48736
       H     5.20404    1.29782    6.81835
       O     4.23534    1.35072    6.63159
      H1     4.07307    2.20125    7.10697
       H     2.11711   -2.17801    6.49427
       O     2.07745   -2.36690    7.47675
      H1     2.68530   -1.74864    7.96662
       H     7.79326   -2.24119    6.04348
       O     7.42654   -1.68135    5.35019
      H1     8.13299   -1.48013    4.64349
       H     1.41433    1.36013    8.50458
       O     1.86930    1.77037    9.30346
      H1     2.68882    1.24894    9.26076
       H     3.73701    5.47825    8.20798
       O     3.70586    6.44250    8.24478
      H1     4.20983    6.56991    9.08528
       H     3.66665    1.30649    4.83663
       O     3.55540    1.11993    3.84409
      H1     4.48505    1.24470    3.58182
       H     6.74526    4.13374    8.42030
       O     7.00421    3.60544    9.16644
      H1     7.76823    4.07272    9.46135

