57
frame 1 | Written by MDAnalysis XYZWriter (release 2.4.3)
       H    17.15066  -11.73410   -5.99598
       O    16.58060  -11.30506   -6.61158
      H1    16.78485  -10.35321   -6.55350
       H    17.90686   -9.35618  -10.01333
       O    17.33807   -9.45286   -9.24603
      H1    17.76670   -8.79609   -8.65653
       H    13.85960   -6.04001   -4.11736
       O    13.78057   -6.29746   -3.21682
      H1    14.55450   -6.66840   -2.78046
       H    18.72329   -4.79761   -2.90944
       O    19.35060   -5.01558   -3.63668
      H1    19.83643   -4.19251   -3.79595
       H    13.33208   -8.62557   -8.78154
       O    12.82014   -8.47571   -8.01263
      H1    13.45771   -8.36970   -7.31796
       H    15.19797   -5.38212   -8.57059
       O    14.78203   -4.91234   -7.80264
      H1    14.63996   -4.01769   -8.13770
       H    14.46809   -8.96969   -5.61153
       O    14.86458   -8.42395   -6.34419
      H1    14.50673   -7.49228   -6.23413
       H    17.77398   -6.52314   -6.91973
       O    18.11979   -5.69281   -7.29019
      H1    19.00857   -5.63488   -6.89368
       H    16.76969   -2.93119   -4.42910
       O    17.52132   -2.42544   -4.22925
      H1    17.11965   -1.70249   -3.70241
       H    19.25581   -8.78578   -3.47070
       O    18.77429   -8.16027   -4.00105
      H1    19.52309   -7.49266   -4.14808
       H    16.37748   -6.74718  -10.17630
       O    15.52928   -7.18552   -9.96149
      H1    15.80223   -8.11941   -9.86934
       H    18.24791   -6.36488   -8.95428
       O    18.33310   -6.72887   -9.83529
      H1    18.74783   -6.13198  -10.47869
       H    17.93649  -11.21441   -8.96275
       O    18.50511  -11.95132   -8.56600
      H1    17.86483  -12.65391   -8.27294
       H    14.14687   -6.79010  -10.75019
       O    13.30395   -6.50153  -11.11878
      H1    12.83700   -6.17672  -10.35317
       H    15.38445   -9.83158   -9.28132
       O    14.60640   -9.82672   -9.86347
      H1    14.93342  -10.02880  -10.75514
       H    16.50841   -8.32101   -6.44902
       O    17.48098   -8.12265   -6.60134
      H1    17.94183   -8.21440   -5.76815
       H    17.00307   -7.79792   -2.40190
       O    16.11892   -7.81141   -2.00428
      H1    16.40407   -7.86387   -1.06298
       H    13.69473   -5.52419   -6.69682
       O    13.32825   -6.17761   -6.10311
      H1    12.44553   -6.32925   -6.40331
       H    18.02225   -2.20396   -5.98018
       O    18.01661   -2.49530   -6.95465
      H1    17.68914   -3.42836   -6.78821

