57
frame 1 | Written by MDAnalysis XYZWriter (release 2.4.3)
       H     7.04577  -12.36790  -11.02810
       O     7.60045  -12.36981  -10.24752
      H1     7.33095  -11.64637   -9.72229
       H    11.71161  -12.80069   -8.95290
       O    11.12010  -13.28549   -8.34985
      H1    11.12694  -14.18565   -8.71547
       H    13.63321  -12.22181  -11.05001
       O    13.16021  -12.13326  -10.17451
      H1    13.53119  -11.23812   -9.87199
       H     7.26526  -13.79276   -9.34377
       O     7.10793  -14.65955   -8.93320
      H1     7.71963  -15.31999   -9.28775
       H    11.34393  -10.89259   -6.76008
       O    12.26032  -11.25785   -6.72396
      H1    12.76315  -10.74356   -7.38795
       H     8.70062  -11.05366   -7.41684
       O     9.44571  -11.36571   -6.98769
      H1     9.89994  -12.02328   -7.53828
       H    11.64277  -15.14727   -6.03082
       O    12.09089  -15.95955   -6.24705
      H1    11.70047  -16.20563   -7.10864
       H    13.06493  -10.36416   -5.27665
       O    13.69658  -10.08807   -4.57568
      H1    13.21817   -9.60593   -3.87189
       H    13.33208   -8.62557   -8.78154
       O    12.82014   -8.47571   -8.01263
      H1    13.45771   -8.36970   -7.31796
       H    12.20948  -16.31810   -9.61875
       O    11.40193  -16.05425   -9.14205
      H1    10.71775  -16.46642   -9.67176
       H     7.65494   -8.04068   -7.65408
       O     6.86652   -7.51551   -7.71043
      H1     6.37148   -7.98531   -8.36822
       H    14.65750  -14.09670   -8.07869
       O    14.45778  -14.29781   -8.98859
      H1    13.95448  -13.57612   -9.26637
       H    11.41319  -13.78082   -4.65579
       O    10.70437  -13.59435   -5.26397
      H1    11.06944  -13.13748   -6.01947
       H    11.97054  -11.22495  -11.09539
       O    11.52934  -10.78366  -11.87435
      H1    12.19599  -10.12219  -12.12216
       H     6.06020  -10.99996   -7.76575
       O     6.87215  -10.63416   -8.23772
      H1     6.44605  -10.04372   -8.94237
       H     9.90717   -8.13743   -5.59807
       O     9.56962   -7.46031   -6.26359
      H1     9.46424   -6.63152   -5.82172
       H     7.94568  -14.07581   -6.59951
       O     8.00021  -14.16873   -5.67730
      H1     8.92770  -14.08798   -5.55626
       H    10.97549  -12.62286   -1.83887
       O    11.21589  -11.97179   -2.53970
      H1    10.48655  -12.29284   -3.07088
       H     8.80840  -11.44985   -5.15272
       O     8.27518  -11.68406   -4.39568
      H1     7.93234  -12.56594   -4.65788

