57
frame 1 | Written by MDAnalysis XYZWriter (release 2.4.3)
       H     4.61024   11.76398   19.18957
       O     5.22286   11.40199   18.55427
      H1     5.97516   10.97475   18.96382
       H     3.72409    6.78829   16.65554
       O     4.50595    7.35951   16.70661
      H1     4.22008    8.30643   16.72086
       H    -3.05326   13.02266   19.34199
       O    -2.09510   12.77608   19.30542
      H1    -1.92837   11.80495   19.30200
       H     2.40224   13.63895   18.00999
       O     2.08447   14.08917   17.19183
      H1     1.71994   14.90275   17.50143
       H     5.62765    7.02075   15.41622
       O     6.05811    6.51764   14.67757
      H1     5.45646    5.98629   14.16152
       H     4.27266   10.09803   15.74929
       O     3.89265    9.97710   16.64622
      H1     4.31970   10.57948   17.27711
       H     0.68855   13.01965   17.22940
       O    -0.12344   12.48934   17.04325
      H1    -0.73736   12.58286   17.81846
       H    -0.87666   13.56684   15.94448
       O    -1.45371   13.96325   15.31150
      H1    -1.44719   14.91489   15.35797
       H     0.28928    7.10036   18.81327
       O     0.89568    7.16875   18.04394
      H1     1.16757    8.09493   17.95406
       H     1.45226    9.91432   13.18155
       O     2.13906   10.58997   13.15259
      H1     1.59450   11.40118   13.31011
       H     1.41790    5.51182   13.21730
       O     1.70943    6.39483   13.53472
      H1     1.93247    6.17665   14.43259
       H    -0.32852   13.27653   13.87857
       O     0.34537   12.81470   13.39610
      H1    -0.14326   12.56443   12.56968
       H     1.70320    6.09798   16.99715
       O     2.21932    5.68414   16.30344
      H1     2.17577    4.72610   16.50971
       H    -1.60535   10.32015   15.73886
       O    -1.16209    9.45687   15.85813
      H1    -0.27942    9.63896   16.24765
       H    -0.24298   10.25191   19.26443
       O    -1.20652   10.25441   19.05621
      H1    -1.33465    9.62864   18.29601
       H     1.99921   10.01052   17.27399
       O     1.09095    9.94503   17.42765
      H1     0.69870   10.83172   17.33446
       H     0.56087    7.93551   13.66119
       O     0.09811    8.77775   13.42013
      H1    -0.31725    8.91253   14.29994
       H     4.02498   10.16170   13.57619
       O     4.84769   10.21799   14.01554
      H1     4.91402   11.15361   14.11849
       H    -3.86320    9.81083   17.49175
       O    -3.47515    8.89641   17.49083
      H1    -2.77537    9.03092   16.83491

