57
frame 1 | Written by MDAnalysis XYZWriter (release 2.4.3)
       H    -2.81093    3.28110   -3.57577
       O    -3.37920    2.71505   -3.00613
      H1    -3.62073    3.18489   -2.18911
       H    -1.04333    5.42671    0.43744
       O    -1.45442    4.55855    0.20139
      H1    -1.24241    4.15627    1.04858
       H    -1.20446   -1.79097   -2.93330
       O    -1.40193   -1.15847   -3.66731
      H1    -1.09096   -1.52338   -4.48672
       H     1.91645    3.43247    1.29848
       O     2.41643    3.70420    0.48795
      H1     2.78444    2.88967    0.21098
       H    -0.73951    6.13291   -2.70027
       O    -1.00592    5.19128   -2.76233
      H1    -1.09744    4.94225   -1.82655
       H     4.23754    2.18907   -2.57284
       O     4.30137    1.21213   -2.71123
      H1     3.82786    0.91225   -1.85799
       H     1.20739    4.68799   -5.72991
       O     1.86840    5.11796   -5.15881
      H1     1.68974    6.04584   -5.02838
       H     0.56945    4.46480   -2.39356
       O     1.37481    3.93067   -2.15268
      H1     1.58090    3.87975   -1.21055
       H    -1.33645    0.85604   -4.44639
       O    -0.89883    1.58285   -4.92893
      H1     0.02619    1.40843   -4.88272
       H    -1.32057    0.16120   -0.25372
       O    -0.52618    0.46465    0.17417
      H1     0.08059    0.81030   -0.52572
       H     2.55181    0.27108   -4.54996
       O     1.71278    0.09579   -5.00239
      H1     1.63200   -0.86055   -5.15884
       H     1.17294    2.10399   -2.39343
       O     1.05338    1.15919   -2.18543
      H1     1.12724    0.66701   -3.06060
       H     2.21994    0.36297   -6.72920
       O     2.73457    0.46560   -7.55236
      H1     2.11851    0.80059   -8.23561
       H     3.44560    4.32633   -2.35289
       O     4.34452    4.10199   -2.15993
      H1     4.96649    4.82227   -2.17230
       H    -1.09746    2.00444    1.44980
       O    -1.24648    2.59522    2.17048
      H1    -1.78391    2.09766    2.78138
       H     4.10255    1.16814    0.36655
       O     3.28733    0.87585   -0.06677
      H1     2.98335    0.20336    0.52752
       H    -1.70074    3.07139   -4.86429
       O    -2.05475    3.94885   -5.10640
      H1    -1.70383    4.51499   -4.42026
       H     1.86761   -1.25177    2.57159
       O     1.86316   -0.93588    1.63772
      H1     0.98055   -0.61591    1.46589
       H    -2.41883   -0.27129   -2.16806
       O    -2.76691    0.33208   -1.54156
      H1    -2.71951    1.27503   -1.88322

