57
frame 3 | Written by MDAnalysis XYZWriter (release 2.4.3)
       H    -6.71377   -8.68536    9.62387
       O    -7.62567   -8.48487    9.83512
      H1    -8.08472   -9.28023   10.03426
       H    -2.54310   -2.31812   11.82249
       O    -3.39330   -1.83106   11.70078
      H1    -3.27309   -0.92690   11.47147
       H    -5.48095   -6.57584   12.59178
       O    -5.77763   -5.70695   12.25953
      H1    -6.49408   -6.02091   11.72745
       H    -8.01663   -3.67526   13.32384
       O    -7.29321   -4.00075   13.97484
      H1    -6.99278   -4.82474   13.44835
       H    -9.25261   -4.48343   12.47696
       O    -9.23460   -3.58222   12.08871
      H1    -8.50601   -3.56305   11.45154
       H    -2.29109   -6.66262    9.79133
       O    -2.62079   -7.50992   10.01578
      H1    -2.33091   -8.11047    9.29112
       H    -7.27555   -8.59583   15.78586
       O    -6.65613   -7.91504   15.54464
      H1    -6.73340   -7.60774   14.62986
       H    -0.77951   -4.37739   12.74380
       O    -1.75143   -4.10301   12.80810
      H1    -1.77747   -3.83423   13.72494
       H    -4.29625   -8.65483   12.76264
       O    -5.11037   -8.48454   12.17906
      H1    -4.87380   -8.41013   11.18775
       H    -3.04134   -7.17755   12.21382
       O    -2.66635   -6.78935   13.01902
      H1    -2.54632   -5.81660   12.77776
       H    -4.87097   -1.93961   12.84393
       O    -5.75010   -1.85106   13.21156
      H1    -6.15492   -2.73629   13.32185
       H    -6.69144   -2.69391    9.64203
       O    -6.68358   -3.45391   10.22512
      H1    -6.04466   -3.19107   10.86358
       H    -8.02886   -7.71974   11.41150
       O    -8.09747   -7.29268   12.30779
      H1    -9.03030   -7.17478   12.47750
       H    -4.66058   -7.52757    9.04198
       O    -5.22853   -8.27846    8.93002
      H1    -4.72503   -9.07516    9.11159
       H    -4.64287   -9.70772   14.86612
       O    -3.89458   -9.12857   14.55046
      H1    -4.12094   -8.28038   14.99888
       H    -3.23480   -5.01039   15.65642
       O    -2.62496   -4.24898   15.69621
      H1    -2.98219   -3.71205   16.43021
       H    -8.03253   -4.83965   15.57927
       O    -7.86621   -5.41501   16.28759
      H1    -7.22054   -6.10991   16.02954
       H    -5.19950   -3.75705    8.55747
       O    -4.35460   -3.90760    8.08755
      H1    -4.55148   -4.50685    7.31664
       H    -5.45640   -6.71762   16.36613
       O    -4.60406   -6.22194   16.35815
      H1    -4.23718   -6.28804   17.21540

