57
frame 3 | Written by MDAnalysis XYZWriter (release 2.4.3)
       H     8.11934   16.15219    2.44867
       O     7.55546   16.47617    3.15263
      H1     7.07213   15.77812    3.45861
       H    13.84694   14.63877    2.46220
       O    14.36768   14.22346    1.79338
      H1    14.99569   13.66711    2.26286
       H     6.59567   10.57569    3.44639
       O     7.19802   10.44442    2.63901
      H1     6.71746    9.77347    2.06343
       H    12.29815   16.92528    2.58963
       O    12.05632   16.02676    2.82270
      H1    12.02425   15.98579    3.81269
       H     8.84537    9.55392   -0.07925
       O     9.01149   10.30833   -0.64581
      H1     8.50847   11.04389   -0.35867
       H     7.61078   14.76542   -1.25679
       O     8.56134   14.54869   -1.07187
      H1     8.99040   15.25362   -0.58097
       H     9.67854   10.32899    5.33871
       O     9.35818    9.83628    4.59098
      H1     8.64166   10.37960    4.20864
       H     9.75713   14.53199    5.39127
       O    10.18258   13.68136    5.44418
      H1    11.15257   13.86016    5.47929
       H    13.58541   14.65339    6.08989
       O    12.62558   14.70710    6.07116
      H1    12.48235   14.17169    6.83665
       H     8.79985   16.44851    6.01600
       O     9.19708   16.12640    5.20497
      H1     8.43109   16.22868    4.57115
       H    11.59306   15.35823   -2.18668
       O    11.81296   16.01960   -1.52502
      H1    11.23049   15.93336   -0.75288
       H     5.90749   13.67499    3.40807
       O     6.79558   13.86716    3.84121
      H1     6.67577   13.58227    4.73399
       H    10.53394   11.09742    7.49205
       O     9.75732   11.22183    6.89619
      H1     9.78749   12.14380    6.58292
       H    12.51120   12.87387   -0.85973
       O    12.71712   12.44966   -1.69470
      H1    13.71671   12.41821   -1.76412
       H     7.97069   12.62248    1.34880
       O     7.67014   12.41635    0.46620
      H1     8.05370   13.22998   -0.02311
       H    10.43935   16.05197    1.81587
       O     9.69934   15.82230    1.21176
      H1     9.41369   14.96348    1.58810
       H    12.33147   10.72585    3.65092
       O    11.83845   10.77146    2.81179
      H1    10.95474   10.61212    3.18415
       H    12.84667   13.19331    1.45247
       O    11.99674   13.06808    0.94235
      H1    11.77398   12.14742    1.21843
       H     9.45807   13.29014    3.64221
       O     9.48752   13.36654    2.72175
      H1    10.44472   13.21410    2.52521

