57
frame 2 | Written by MDAnalysis XYZWriter (release 2.4.3)
       H     3.38587   19.65159    4.96630
       O     3.29298   18.71857    4.71040
      H1     4.06871   18.48583    4.20092
       H    -2.09726   14.90316    8.41447
       O    -2.78682   15.49889    8.30891
      H1    -3.00991   15.41147    7.34147
       H     2.77055   18.41615    6.62593
       O     2.41398   18.05326    7.45908
      H1     1.54297   18.37413    7.46433
       H     3.56110   18.99447    8.81363
       O     4.28640   19.42990    9.32445
      H1     4.29980   20.33927    9.04010
       H     4.96070   16.82235   11.87108
       O     4.60830   15.91652   11.83479
      H1     4.51281   15.74037   10.87313
       H     7.44637   19.87296    8.73548
       O     6.78462   19.85451    8.05744
      H1     6.05790   19.29096    8.31884
       H     2.68478   14.86086    6.91022
       O     3.21860   15.44779    7.41807
      H1     2.81676   16.33957    7.33316
       H     0.31397   18.56837    4.07054
       O     0.66419   17.70635    4.07421
      H1     1.64158   17.73266    3.97457
       H     1.83278   13.13997    5.65506
       O     1.77228   13.26340    6.59799
      H1     2.25526   12.51052    6.94843
       H    -0.59477   15.15417    2.68829
       O     0.24128   15.19272    2.25916
      H1     0.61483   16.06428    2.61484
       H    -2.23491   18.23953   10.58524
       O    -1.75701   17.74982    9.93088
      H1    -2.38448   17.02953    9.66954
       H    -0.58562   16.71443   10.79104
       O    -0.09837   16.06305   11.28518
      H1    -0.56963   15.24974   11.22433
       H     1.21321   15.01066   10.31371
       O     2.00528   14.54617    9.95831
      H1     2.22600   15.11072    9.22007
       H    -0.57766   18.83348    8.38885
       O    -0.02611   19.01425    7.61779
      H1    -0.47662   18.50589    6.90923
       H     6.09687   14.78995    8.56600
       O     5.36844   15.07315    9.08064
      H1     4.66532   14.93644    8.49295
       H     5.25427   13.35297    5.64355
       O     5.55835   14.22095    5.86920
      H1     4.79023   14.67509    6.28335
       H    -0.47319   17.22101    5.23527
       O    -1.21082   17.34723    5.89103
      H1    -1.91167   16.68584    5.83260
       H    -3.09454   19.96438    5.68465
       O    -3.10661   19.30208    6.44642
      H1    -2.37665   18.68509    6.16438
       H     5.38209   19.04681   12.25454
       O     5.91105   18.57574   11.58777
      H1     5.46231   18.70921   10.76315

