57
frame 2 | Written by MDAnalysis XYZWriter (release 2.4.3)
       H     1.26357   10.23668   -2.06300
       O     1.70408    9.37291   -2.22049
      H1     2.29088    9.32153   -1.48350
       H     6.82484   14.50191   -2.65738
       O     6.30748   13.79094   -2.97318
      H1     6.94398   13.38169   -3.56885
       H     0.55632   12.79837   -1.09560
       O     1.11222   12.07726   -1.47133
      H1     1.94346   12.50419   -1.68220
       H     5.84607   16.51888   -2.33139
       O     6.76767   16.82300   -2.24419
      H1     6.80979   17.06236   -3.14426
       H     2.55677   16.54325   -1.08046
       O     2.57339   16.75199   -1.99661
      H1     2.41974   17.68395   -1.99171
       H     4.02943   14.51964    0.47625
       O     4.05927   15.32485   -0.09303
      H1     4.27822   16.07347    0.53614
       H     7.50965   15.83181   -0.67256
       O     8.02316   15.28721   -0.05909
      H1     7.99923   15.77436    0.77192
       H    -0.54457   13.96917    0.98740
       O    -0.77895   13.49431    0.18682
      H1    -1.30766   14.11965   -0.35253
       H     6.02678   18.17352   -1.65514
       O     5.71000   19.08480   -1.29434
      H1     4.96599   19.39032   -1.87479
       H     2.67752   12.11240   -5.06146
       O     3.27646   11.42744   -4.72893
      H1     2.67578   10.94147   -4.16745
       H    -0.81874   16.93606    0.52949
       O    -0.30432   17.32211   -0.22565
      H1    -0.39048   16.59969   -0.81284
       H     3.74605   16.11908   -3.09381
       O     4.52350   15.93337   -3.69178
      H1     4.77223   15.04624   -3.49505
       H     1.60324   11.50574    2.04293
       O     2.03356   11.27812    1.23733
      H1     1.43213   11.49941    0.47966
       H     0.98755   15.84905   -3.20499
       O     0.31039   15.22949   -3.61859
      H1     0.17347   15.47170   -4.56210
       H     4.10825   15.01485   -5.46067
       O     3.83527   14.86350   -6.36316
      H1     4.51567   14.25301   -6.70259
       H     7.27090   12.59048    1.40304
       O     6.83025   12.37721    0.60214
      H1     7.34811   12.84275   -0.00886
       H     0.11070   12.64320   -4.25947
       O    -0.47595   11.94609   -4.47651
      H1    -0.73907   11.54305   -3.66155
       H     3.56333   14.22933   -1.56079
       O     3.39854   13.54167   -2.22854
      H1     4.16587   12.95629   -2.24789
       H     5.19282   12.71657    1.07288
       O     4.33944   12.86521    1.53106
      H1     3.61898   12.30669    1.20844

