57
frame 2 | Written by MDAnalysis XYZWriter (release 2.4.3)
       H     9.28825    8.42610  -12.14974
       O     8.74887    8.84244  -11.44278
      H1     9.11515    8.61871  -10.52482
       H    10.96925   10.29489  -15.54337
       O    11.33604   11.16822  -15.16930
      H1    12.23363   10.85467  -14.79572
       H    13.25572   12.80761  -11.20611
       O    13.75487   13.11679  -11.97785
      H1    13.43393   14.03857  -12.03807
       H    14.70298   10.24145   -9.44981
       O    14.70960    9.42948   -9.98573
      H1    14.15504    8.85809   -9.44875
       H    12.88285    5.13391  -14.00050
       O    13.07422    4.62746  -13.13702
      H1    12.47213    4.94626  -12.39915
       H    11.91181   10.78230  -10.97252
       O    11.92383   11.56619  -10.34027
      H1    11.61248   11.08481   -9.48552
       H    12.44156    8.95387  -11.79363
       O    11.54373    9.36837  -11.90401
      H1    10.96787    9.07148  -11.19778
       H     9.69288    5.01975  -12.96361
       O     9.39041    5.89360  -12.70310
      H1     9.60142    6.55056  -13.38724
       H     9.53767    8.40557   -8.36097
       O     9.91993    7.98241   -9.15903
      H1     9.57042    7.10321   -9.13595
       H    14.30805   11.20868  -14.76645
       O    13.78651   12.03655  -14.48718
      H1    13.86050   12.11969  -13.49585
       H    11.60561    9.85559   -7.40599
       O    11.12047   10.29054   -8.10652
      H1    10.62395   10.99066   -7.67657
       H    14.04314    7.32493  -11.41808
       O    14.27727    7.85239  -12.19848
      H1    14.82393    8.55992  -11.77656
       H    10.13046   11.85141  -13.78606
       O     9.33239   11.72900  -13.18942
      H1     9.44861   10.87004  -12.78666
       H    10.78836    6.41800  -10.96066
       O    11.50884    5.83935  -10.60880
      H1    11.94169    6.43797  -10.02156
       H     9.49394    8.63256  -14.80439
       O     9.80863    8.32884  -13.95830
      H1    10.65222    8.78981  -13.84198
       H    16.16009    8.72137  -10.21861
       O    16.92592    8.30321  -10.60853
      H1    16.90611    8.18685  -11.55858
       H    15.38649    6.98430  -15.60930
       O    15.69515    7.11689  -14.68340
      H1    15.11327    7.65820  -14.15181
       H    15.45241    6.06860  -12.19781
       O    15.27990    5.23568  -11.70998
      H1    14.38353    5.02338  -11.97958
       H    11.87683    8.16625   -8.65320
       O    12.65328    7.67897   -8.96729
      H1    13.20203    7.39581   -8.18902

