57
frame 3 | Written by MDAnalysis XYZWriter (release 2.4.3)
       H   -13.17538   -9.51658  -10.15929
       O   -13.65518   -9.69861  -10.97318
      H1   -14.61722   -9.69496  -10.76200
       H    -9.93098  -11.36105   -9.76914
       O    -9.23294  -11.27603   -9.05292
      H1    -9.47886  -11.99911   -8.37354
       H   -10.66967  -13.77862   -7.22002
       O   -10.02321  -13.09210   -7.28034
      H1    -9.80058  -12.87139   -6.36959
       H   -13.87412  -12.04040  -12.31854
       O   -13.68836  -12.70470  -11.59112
      H1   -12.77026  -12.60667  -11.39713
       H   -12.64120   -9.83317   -8.09978
       O   -12.71828   -8.95373   -8.57687
      H1   -13.35540   -8.50033   -8.00097
       H   -11.67962   -7.86187   -9.31465
       O   -11.15883   -7.22322   -9.86993
      H1   -11.54990   -7.42767  -10.72564
       H   -12.31964  -10.69923   -5.98284
       O   -12.21364  -10.44048   -5.04389
      H1   -13.00855   -9.95289   -4.83425
       H   -16.68633  -10.22625   -6.47082
       O   -16.63665   -9.63950   -5.73698
      H1   -17.49899   -9.16040   -5.81454
       H   -10.43980  -11.50726  -11.93843
       O   -10.92054  -11.92478  -11.17992
      H1   -10.73754  -12.92707  -11.20072
       H   -16.22580  -10.77238   -4.42887
       O   -15.73955  -11.48241   -4.07064
      H1   -16.13184  -11.93078   -3.29508
       H   -12.17653  -12.01495   -4.01949
       O   -12.32657  -12.92184   -3.85652
      H1   -11.40261  -13.26973   -3.82533
       H   -12.61990  -15.33244   -6.29478
       O   -11.67031  -15.34377   -6.55224
      H1   -11.08325  -15.36347   -5.82205
       H   -11.60100  -11.81968   -7.64354
       O   -12.37579  -11.25968   -7.50902
      H1   -13.15902  -11.69517   -7.82609
       H   -15.43317  -12.80482   -8.47029
       O   -15.11526  -12.00454   -7.97632
      H1   -15.95613  -11.55492   -8.05418
       H   -15.07817  -14.41536   -9.67034
       O   -15.91298  -14.08263   -9.40855
      H1   -16.29297  -13.53381  -10.13996
       H   -10.85713   -8.09625   -7.07006
       O   -10.06560   -8.66604   -6.98612
      H1   -10.00504   -9.10964   -7.86471
       H   -13.02777  -15.26378  -10.19723
       O   -13.88063  -15.60930   -9.93188
      H1   -13.72923  -16.04591   -9.06335
       H   -18.23149  -11.21929   -8.02526
       O   -17.55204  -10.58697   -8.33404
      H1   -17.94328   -9.65851   -8.36336
       H   -14.55927  -13.38825   -6.51206
       O   -14.03335  -14.03032   -5.88806
      H1   -13.75064  -13.47521   -5.15322

