57
frame 2 | Written by MDAnalysis XYZWriter (release 2.4.3)
       H   -18.47052    0.11238   10.59607
       O   -19.39929    0.16197   10.88540
      H1   -19.35398    0.97210   11.39551
       H   -16.74619    5.40156    7.63299
       O   -16.02034    4.70649    7.63241
      H1   -15.49197    4.96343    8.40494
       H   -13.79233    3.51672   12.64410
       O   -13.98660    2.51953   12.71267
      H1   -13.44532    2.28728   13.45389
       H   -16.94504    3.22718    8.17417
       O   -17.43205    2.39215    8.14742
      H1   -18.33566    2.69643    7.92387
       H   -15.45394    5.52649   10.29642
       O   -14.82398    4.91814    9.95308
      H1   -14.90317    4.26157   10.63089
       H   -16.58161   -2.82975   12.46249
       O   -16.89509   -1.96069   12.12955
      H1   -17.81608   -1.80557   12.42690
       H   -19.72252    1.79648   13.53550
       O   -19.46316    2.56165   12.93384
      H1   -18.52365    2.40270   12.84335
       H   -17.14771    2.43372    3.77561
       O   -16.83027    2.30336    4.72678
      H1   -17.32558    2.95993    5.25252
       H   -15.45288    1.24577   12.28024
       O   -16.04105    0.75562   12.78258
      H1   -16.01678   -0.10362   12.28626
       H   -16.90031    0.84476    9.30036
       O   -16.73489    0.29832   10.04872
      H1   -16.67978   -0.63050    9.75108
       H   -14.40264    1.14391   10.13826
       O   -13.92601    1.40894    9.34772
      H1   -13.94448    0.59746    8.77553
       H   -17.17620   -1.18946    7.99363
       O   -16.49091   -1.74522    8.36433
      H1   -15.66324   -1.24022    8.33990
       H   -13.11256   -1.21302    8.21523
       O   -13.61190   -0.49911    7.65647
      H1   -12.89858   -0.03781    7.19770
       H   -13.92521   -2.06778   11.22191
       O   -14.51740   -2.13029   10.44895
      H1   -15.38002   -2.05012   10.88940
       H   -19.57904   -2.15420    7.71729
       O   -19.17789   -1.26418    7.58972
      H1   -18.78259   -1.32930    6.67140
       H   -17.37973    0.29254    5.30487
       O   -17.36779   -0.66815    5.43494
      H1   -17.55777   -1.15535    4.62549
       H   -14.28402    2.35815    6.06038
       O   -13.54884    2.83055    5.63737
      H1   -13.79589    3.78685    5.43446
       H   -18.39884   -4.37726    9.66056
       O   -17.66648   -4.43287    9.03407
      H1   -17.51872   -3.50198    8.90462
       H   -15.63969   -1.11467    5.72714
       O   -14.81639   -1.58063    5.64191
      H1   -14.34534   -1.26298    6.43621

