57
frame 2 | Written by MDAnalysis XYZWriter (release 2.4.3)
       H    17.89621  -11.64047   15.13213
       O    17.75455  -12.36695   15.70477
      H1    16.88019  -12.13096   16.16957
       H    12.27413  -12.97486   15.38791
       O    11.55184  -12.98800   16.05551
      H1    10.82499  -13.25803   15.52341
       H    13.73121  -11.39512   14.92787
       O    13.28052  -10.55919   14.73344
      H1    12.64735  -10.85998   14.07596
       H    15.56817  -13.10156   17.20425
       O    15.31693  -12.36911   16.68631
      H1    15.28214  -11.67504   17.31848
       H    10.77961   -8.66524   15.85002
       O    10.42957   -8.23071   15.09991
      H1     9.60436   -7.77375   15.40469
       H    12.40675  -10.17433   16.16715
       O    11.93343   -9.89759   16.94709
      H1    11.83724  -10.69641   17.49269
       H    12.99703   -9.25682   18.35214
       O    13.59431   -8.92337   19.03073
      H1    13.51548   -7.96686   18.93916
       H    11.16039  -12.41676   18.94973
       O    12.02179  -12.15657   18.61334
      H1    12.05169  -12.62675   17.76010
       H    15.41771   -8.56891   16.32025
       O    14.78913   -8.44919   15.60995
      H1    14.50404   -9.39240   15.47820
       H    10.29872  -12.22875   12.66500
       O    10.93008  -11.66969   13.06463
      H1    11.65725  -11.61155   12.35028
       H    14.43164  -14.03240   14.51624
       O    13.68495  -13.68642   14.09378
      H1    14.11148  -13.10083   13.42449
       H    16.63398   -9.79272   18.80434
       O    16.09005   -9.54169   18.07485
      H1    15.30082   -9.11910   18.43852
       H    11.92057  -16.17443   17.21469
       O    12.44978  -15.79394   16.45253
      H1    11.95490  -15.02403   16.23783
       H    15.50776   -7.69228   14.13996
       O    15.97453   -7.23411   13.39932
      H1    16.12518   -6.33504   13.76267
       H    13.72270  -10.78483   12.34856
       O    13.39828  -11.60518   11.99987
      H1    13.69604  -11.70658   11.05777
       H    12.86297  -16.61199   12.98744
       O    13.64132  -16.06643   12.72525
      H1    13.45498  -15.19927   13.13706
       H    16.89918  -13.90111   14.81221
       O    16.16435  -14.57192   14.86837
      H1    16.37076  -15.02002   15.71332
       H     9.17976   -9.47399   16.68826
       O     8.94258  -10.40955   16.68749
      H1     9.80113  -10.80618   16.64768
       H    15.76443  -11.24209   11.20975
       O    16.20059  -10.37189   11.29306
      H1    16.12270   -9.97367   10.41303

