57
frame 2 | Written by MDAnalysis XYZWriter (release 2.4.3)
       H     4.44284  -17.81885   -9.99811
       O     5.37503  -18.13362  -10.06762
      H1     5.18559  -19.06879   -9.85938
       H     7.73549  -13.73320  -12.41753
       O     6.78148  -13.78330  -12.59554
      H1     6.64348  -14.72587  -12.47999
       H     6.55220  -13.92579   -5.45925
       O     5.84118  -13.64875   -4.91026
      H1     5.14676  -14.27472   -5.14652
       H     8.13157  -17.71474   -9.91246
       O     8.29432  -16.77058  -10.07172
      H1     7.71798  -16.57452  -10.83754
       H     6.20936  -12.91044  -10.59371
       O     6.60265  -13.01715   -9.68800
      H1     6.15898  -12.28258   -9.15316
       H     2.49022  -18.87615  -11.37547
       O     2.42310  -17.92024  -11.14432
      H1     2.68212  -17.42964  -11.91058
       H     6.57829  -14.53872   -8.82686
       O     6.99311  -15.28464   -8.34085
      H1     7.45683  -15.82443   -9.03841
       H     2.73411  -12.06212   -8.07141
       O     2.75186  -11.77373   -8.96789
      H1     1.79290  -11.52961   -8.99736
       H     6.99927  -19.86799   -9.85837
       O     7.55844  -19.62152   -9.06558
      H1     6.96023  -19.12600   -8.47727
       H     3.46171  -14.49538  -12.22826
       O     4.18325  -13.97006  -11.82139
      H1     5.00288  -14.05919  -12.34667
       H     0.72681  -18.57269   -6.63056
       O     1.52699  -18.53820   -6.03942
      H1     1.95152  -17.65652   -6.24398
       H     3.18809  -15.18043   -3.58254
       O     3.32402  -14.71348   -4.38275
      H1     2.55405  -14.13351   -4.42902
       H     1.29982  -15.54723   -7.54409
       O     0.41989  -15.52837   -7.95165
      H1     0.36788  -16.20164   -8.63962
       H     1.86354  -13.49917  -10.37705
       O     1.00123  -13.93490  -10.42814
      H1     0.70006  -14.29720   -9.56330
       H     4.12080  -14.93559   -9.50875
       O     4.22531  -15.48675   -8.68684
      H1     5.17249  -15.45546   -8.50002
       H     3.38607  -16.24474   -7.06504
       O     2.68753  -16.27709   -6.41969
      H1     3.05233  -15.78308   -5.70960
       H     8.04039  -14.54962   -6.92151
       O     8.33934  -14.15298   -6.10501
      H1     8.67718  -13.22246   -6.42404
       H     5.93759  -17.74263   -8.07306
       O     6.29680  -17.95700   -7.18053
      H1     6.77513  -17.18953   -6.89718
       H     7.52824  -16.62357  -13.09643
       O     6.74589  -16.58693  -12.56617
      H1     6.81261  -17.41798  -12.07307

