57
frame 2 | Written by MDAnalysis XYZWriter (release 2.4.3)
       H    14.66793  -12.69170    3.94983
       O    13.85533  -12.50521    3.39226
      H1    13.17457  -13.16875    3.70653
       H    10.19223  -13.14905    0.37177
       O     9.24487  -12.90501    0.53747
      H1     9.14828  -12.14092   -0.01915
       H    11.06149  -14.01108    3.53510
       O    11.77213  -14.41027    4.09271
      H1    11.78520  -15.34818    3.85289
       H     9.47671  -14.08818    5.95495
       O    10.30646  -14.13020    6.36940
      H1    10.97115  -14.38967    5.68871
       H     9.05416  -17.74179    1.60952
       O     9.31915  -16.81243    1.79708
      H1     9.25260  -16.78909    2.73106
       H    13.15306  -11.27323    4.00208
       O    12.43363  -10.65498    4.36342
      H1    12.97159  -10.16926    5.03327
       H    12.86479  -13.05849    0.44250
       O    11.98986  -13.09619   -0.01020
      H1    11.82256  -13.99190   -0.37256
       H    15.94270  -15.84145    3.79575
       O    15.11759  -15.27084    3.70378
      H1    15.25865  -14.59783    4.42093
       H    12.27197  -16.11609    8.94574
       O    12.60601  -16.63684    8.17664
      H1    12.88536  -17.46708    8.49546
       H    12.91087  -18.96815    1.23388
       O    13.39789  -18.13529    0.97349
      H1    14.35914  -18.34441    1.17507
       H    11.54586  -18.57360    3.75221
       O    11.36991  -19.52446    3.81439
      H1    11.68661  -19.83369    4.68202
       H    13.93824  -18.27398    4.69672
       O    14.31798  -18.90934    5.31392
      H1    13.70472  -18.84767    6.07807
       H     7.92129  -13.81583    4.95372
       O     7.58853  -14.23571    5.78208
      H1     6.99680  -14.84361    5.32048
       H    17.28110  -15.76131    1.52909
       O    16.36712  -15.90694    1.40490
      H1    15.89966  -15.45686    2.14603
       H    13.01800  -17.11184    2.63298
       O    12.98593  -17.07546    3.64450
      H1    13.62187  -16.40063    3.78959
       H     8.86143  -12.35255    3.73302
       O     8.86873  -13.30842    3.54004
      H1     8.30049  -13.37252    2.75723
       H     8.39320  -17.95028    4.46817
       O     8.77068  -17.11176    4.59816
      H1     9.19762  -17.14748    5.48047
       H     9.95338  -15.81733    6.96228
       O    10.12334  -16.76327    6.95822
      H1    11.05994  -16.86833    7.22196
       H    10.49081  -12.42851    9.07824
       O    11.12067  -12.32636    8.34643
      H1    10.89503  -12.96634    7.64903

