57
frame 4 | Written by MDAnalysis XYZWriter (release 2.4.3)
       H    -8.70511   15.38885   14.13181
       O    -8.14335   14.70673   13.69572
      H1    -8.78317   14.13030   13.30691
       H   -13.76976   14.46014   16.39970
       O   -13.94507   14.83491   15.55555
      H1   -14.26156   15.74792   15.54122
       H    -6.56383   17.73564   11.44049
       O    -7.23488   17.13399   11.73848
      H1    -6.77965   16.26361   11.61960
       H   -10.54633   16.96109   10.65985
       O    -9.74057   17.31053   10.24001
      H1    -9.10593   17.17250   10.97795
       H   -14.90208   16.30752    9.08919
       O   -14.15705   16.72922    9.60419
      H1   -13.85749   16.05648   10.22859
       H   -12.15764   17.34134   18.64084
       O   -11.83645   16.55926   18.16587
      H1   -11.44650   16.98030   17.44226
       H   -15.10376   17.91921   16.61283
       O   -14.70437   17.72198   15.77223
      H1   -13.91351   18.32078   15.69869
       H   -11.76374   13.51120   13.90524
       O   -12.12530   14.37410   13.66477
      H1   -12.63614   14.53567   14.48531
       H   -11.55645   15.81177   12.58000
       O   -11.56919   16.73238   12.24422
      H1   -11.72281   17.37653   13.01909
       H   -10.55735   15.63215   14.74465
       O    -9.91405   16.04753   15.29419
      H1    -9.77367   15.41228   16.01774
       H    -8.98943   18.63075   16.81803
       O    -9.78062   19.18922   16.84243
      H1    -9.41777   20.03851   16.98463
       H   -15.85174   18.93868   14.65705
       O   -16.23737   19.67439   14.17223
      H1   -15.51068   20.12610   13.72712
       H   -12.67646   16.99410    8.39487
       O   -12.00329   17.00217    7.73863
      H1   -11.34528   17.67351    7.97410
       H    -8.39429   18.36297   12.92208
       O    -8.89474   19.04904   13.32162
      H1    -9.80114   18.73680   13.58904
       H   -13.02092   13.97119   10.76244
       O   -13.67654   14.42555   11.31617
      H1   -13.31724   14.54467   12.19287
       H   -15.30719   19.74731    9.56641
       O   -14.38425   19.65588    9.87388
      H1   -14.29727   18.79445   10.28207
       H    -9.49268   18.43295    8.89257
       O    -9.74417   18.90084    8.01633
      H1    -8.89844   19.38375    7.78250
       H   -10.95150   18.61038   15.13927
       O   -11.57936   18.66345   14.36797
      H1   -11.69545   19.59981   14.18871
       H   -12.38290   13.35011    8.68027
       O   -11.99405   13.44856    9.58277
      H1   -11.57306   14.30594    9.53857

