57
frame 3 | Written by MDAnalysis XYZWriter (release 2.4.3)
       H    -3.67582    8.81142   -1.03518
       O    -4.24195    8.51382   -0.31990
      H1    -5.00151    8.11314   -0.80850
       H   -10.28763    6.25213    3.75468
       O    -9.46488    6.67258    3.45294
      H1    -8.75952    6.60761    4.10996
       H    -6.76170    5.76152    0.68245
       O    -7.27218    5.77710   -0.13869
      H1    -7.85912    4.99947    0.02593
       H    -3.69698    6.90446    0.58579
       O    -3.52038    6.05636    0.98529
      H1    -2.82984    6.22717    1.63130
       H    -9.13036    8.49379    1.36589
       O    -9.31430    7.84973    0.60745
      H1    -8.54382    7.25738    0.47433
       H    -7.96961   11.98546    2.55012
       O    -7.51439   11.80518    1.68606
      H1    -8.20754   11.40718    1.11737
       H    -4.43501    9.75206    1.03747
       O    -4.07707   10.23683    1.75653
      H1    -4.50911   11.06244    1.68752
       H    -5.55689    8.54436    3.95881
       O    -5.98535    8.84097    3.07915
      H1    -5.46262    9.61393    2.90017
       H    -1.09330    5.71400    2.96656
       O    -1.84353    6.34316    3.11177
      H1    -2.53963    5.76188    3.54611
       H    -7.25533    5.42256    5.31096
       O    -7.62651    6.31079    5.24119
      H1    -8.01718    6.54691    6.08822
       H    -5.06513   12.73707    3.01541
       O    -5.06503   12.76410    2.05460
      H1    -5.94289   12.43622    1.74083
       H    -1.25559    8.48777    3.10101
       O    -1.65197    9.37478    2.99868
      H1    -2.56313    9.23900    2.72522
       H    -9.23636    9.76269    3.63723
       O    -9.97872    9.30833    3.18593
      H1    -9.79032    8.32035    3.41196
       H    -3.07404   11.78986    6.75243
       O    -2.98303   12.25390    5.94079
      H1    -3.82458   12.17729    5.52680
       H    -4.53793    5.31834    3.69122
       O    -3.98220    5.20875    4.51025
      H1    -3.84027    4.26501    4.55234
       H    -7.09596    9.69652    3.97176
       O    -7.56395    9.96169    4.82007
      H1    -7.36545    9.33797    5.47574
       H    -4.89342    6.01917    1.80809
       O    -5.69728    6.11614    2.37333
      H1    -5.78948    7.03397    2.60135
       H    -6.07268    7.10812    5.70118
       O    -5.29596    7.73776    5.71825
      H1    -4.51677    7.15894    5.74408
       H    -6.03366   12.93507    5.17077
       O    -5.62271   12.27497    4.59057
      H1    -6.20718   11.53977    4.68040

