57
frame 4 | Written by MDAnalysis XYZWriter (release 2.4.3)
       H     7.59035   15.22713    8.63852
       O     7.60151   14.36568    9.11070
      H1     7.14454   13.76861    8.53092
       H     7.49327   10.31920    3.42533
       O     8.23870   10.62550    2.83969
      H1     7.91250   11.27871    2.25016
       H     2.96320    7.21500    6.05092
       O     2.61058    6.96933    5.20629
      H1     2.94845    6.09447    5.08627
       H     0.66069    9.36707    5.75779
       O     0.72935    9.84856    6.64708
      H1     1.53014   10.39583    6.65432
       H     3.58272   11.45290    7.39570
       O     2.72390   11.77570    7.20802
      H1     2.19343   11.66129    8.01321
       H     8.35191    6.78573    6.72655
       O     8.43732    7.08777    7.67120
      H1     8.01480    7.93962    7.71121
       H     9.88502   10.64614    5.39740
       O    10.09562    9.92294    4.75807
      H1     9.66426   10.20837    3.90290
       H     6.55387    6.21424    7.55273
       O     5.77374    5.61277    7.46166
      H1     5.06358    6.24004    7.63453
       H     4.51502   13.18250   10.46437
       O     4.51493   12.22874   10.63238
      H1     3.61396   12.00919   10.46697
       H     5.60720   13.86237    3.93668
       O     6.26367   14.39514    4.33855
      H1     6.31899   14.10450    5.23668
       H     5.90238   11.26221   10.75249
       O     6.60302   10.58994   10.82271
      H1     7.30824   10.89656   11.38654
       H     5.86142   11.29354    4.02178
       O     6.14002   10.41532    4.37876
      H1     5.45191    9.71731    4.17673
       H     5.73042   10.68428    6.11498
       O     5.40786   10.80120    7.03100
      H1     6.07507   10.29969    7.58421
       H    10.24529   11.57085    7.71475
       O     9.62133   11.56890    6.93313
      H1     9.90200   12.38064    6.41893
       H     8.39971   10.26817    7.89089
       O     7.70403    9.66282    8.22367
      H1     7.52888    9.88083    9.13733
       H     5.88510   12.63604    7.04722
       O     6.10368   13.54302    6.92589
      H1     5.26018   13.93578    7.23832
       H     3.70910    6.21091    8.67226
       O     3.75320    7.13889    8.37334
      H1     3.76106    7.68039    9.16352
       H     5.18063    9.15096   13.52498
       O     5.53790    8.82381   12.66346
      H1     5.80561    9.60204   12.17905
       H     3.97535    7.85847    4.34546
       O     4.64211    8.39146    3.81022
      H1     5.28449    7.75886    3.48951

