57
frame 3 | Written by MDAnalysis XYZWriter (release 2.4.3)
       H    -5.81112    8.69456   -6.94221
       O    -6.54378    8.22271   -6.51315
      H1    -6.87783    7.57068   -7.14361
       H    -2.85656    7.44146   -5.70445
       O    -2.58204    8.36752   -5.49033
      H1    -3.25252    8.84778   -6.00217
       H    -4.34768    9.07437   -4.12353
       O    -4.82455    9.83029   -3.77139
      H1    -5.77245    9.63371   -3.76386
       H    -8.05250   11.00139   -4.55628
       O    -7.88466   11.91758   -4.99617
      H1    -8.59236   11.96693   -5.64442
       H    -3.58903    9.42827   -7.75196
       O    -4.31721    9.71144   -7.17779
      H1    -4.37647   10.67423   -7.17063
       H    -1.09097   12.19121   -5.13400
       O    -0.86218   12.49124   -6.03972
      H1    -1.73763   12.49996   -6.49648
       H    -2.16768   10.48471   -1.50344
       O    -2.42420    9.81264   -2.25247
      H1    -3.28272   10.00311   -2.64806
       H    -4.94628   16.27507   -5.41225
       O    -5.44083   17.08101   -5.58590
      H1    -5.72579   17.42390   -4.71867
       H    -4.86592   11.82561   -4.60271
       O    -5.28629   12.70064   -4.83482
      H1    -6.14187   12.48553   -5.18601
       H    -8.11674   16.26849   -7.23282
       O    -7.97320   17.10508   -6.75611
      H1    -7.19260   16.89873   -6.26489
       H    -6.78680   11.32780   -1.72414
       O    -6.96418   10.55786   -1.16988
      H1    -6.80776    9.70704   -1.60429
       H    -9.76864   11.10563   -7.38421
       O    -9.73931   12.04445   -7.02428
      H1   -10.52886   12.46407   -7.30866
       H    -6.04035   12.91378   -3.15598
       O    -6.55956   12.97148   -2.32405
      H1    -6.06557   13.56690   -1.77731
       H    -7.70698   14.18291   -8.84046
       O    -7.97746   14.29909   -7.89620
      H1    -8.53661   13.47346   -7.80286
       H    -3.50700   15.16033   -7.54713
       O    -3.34483   14.98363   -8.47979
      H1    -2.51945   15.36838   -8.75669
       H    -4.02722   13.89777   -5.38086
       O    -3.72567   14.79750   -5.71729
      H1    -2.77218   14.88400   -5.44637
       H    -2.57249   11.98552   -8.56440
       O    -3.03336   12.37507   -7.78483
      H1    -3.29693   13.24047   -8.18353
       H    -8.93751    8.59585   -4.06357
       O    -8.44814    9.23818   -4.62806
      H1    -7.66995    8.81037   -5.02943
       H    -9.41182   13.73265   -3.44467
       O    -8.85154   14.20447   -2.80248
      H1    -7.94897   13.76265   -2.79442

