57
frame 3 | Written by MDAnalysis XYZWriter (release 2.4.3)
       H     1.71197  -12.19315   -6.18593
       O     1.07836  -12.62506   -6.77631
      H1     0.36182  -13.04549   -6.21651
       H     0.52684   -9.86538  -12.03719
       O     0.81602   -9.52926  -12.89868
      H1     0.53873  -10.16681  -13.61997
       H     3.48965  -11.54897   -4.73222
       O     2.54471  -11.60968   -4.65121
      H1     2.44703  -12.54182   -4.43682
       H     3.88271   -9.76370   -7.36365
       O     4.30799   -8.90640   -7.49397
      H1     4.46049   -8.80533   -8.43814
       H     2.05467   -7.90787  -11.98342
       O     2.25275   -7.53015  -11.12103
      H1     3.23731   -7.59796  -11.09131
       H     5.36467  -11.61128   -8.92574
       O     6.24089  -11.84263   -8.62008
      H1     6.43572  -11.23863   -7.93980
       H     6.08204  -13.80631   -8.72551
       O     6.15119  -14.72616   -8.45311
      H1     6.90926  -15.02726   -8.99983
       H     2.10520  -11.28677   -8.69702
       O     2.97358  -10.98123   -8.76904
      H1     2.87351  -10.38922   -9.55212
       H     2.70577   -8.87789   -6.65149
       O     1.90253   -8.75863   -6.14297
      H1     1.95977   -9.40158   -5.46508
       H    -0.97029  -10.88991  -10.77448
       O    -0.03563  -10.77860  -10.42809
      H1     0.31250  -11.69634  -10.45798
       H     3.10627  -14.23390  -12.21857
       O     3.31801  -13.48042  -11.58591
      H1     4.25256  -13.17009  -11.60366
       H    -0.61917  -10.81451   -7.01934
       O    -1.49958  -10.33031   -7.11088
      H1    -1.56283   -9.46969   -6.60047
       H     1.37934  -13.04091  -10.41019
       O     0.49156  -13.37439  -10.42564
      H1     0.56030  -14.04937   -9.74700
       H     3.36951  -14.66812   -9.96723
       O     3.50175  -14.88906   -9.05570
      H1     4.47029  -14.88340   -8.94533
       H     2.87219  -15.48405   -7.28765
       O     2.58684  -16.07105   -6.59426
      H1     3.04386  -15.82935   -5.72958
       H     0.64119   -7.50963   -6.89732
       O     0.02169   -6.86240   -7.04440
      H1    -0.65806   -7.19349   -7.62201
       H    -1.19290   -7.89909   -9.46092
       O    -1.89588   -8.20409   -8.85866
      H1    -1.60161   -9.06678   -8.57344
       H     4.93110   -6.97705  -10.13252
       O     4.92220   -7.92642  -10.05543
      H1     5.19134   -8.36290  -10.92038
       H     2.97878  -11.97554  -12.25202
       O     3.10085  -11.03872  -12.49188
      H1     2.40932  -10.71340  -13.08610

