57
frame 3 | Written by MDAnalysis XYZWriter (release 2.4.3)
       H   -17.53032   -2.14820  -12.21901
       O   -16.87214   -1.57394  -12.62697
      H1   -16.75252   -1.80771  -13.56541
       H   -17.43057   -5.55170  -14.80405
       O   -18.26958   -5.08419  -14.89241
      H1   -18.80238   -5.54757  -14.21301
       H   -15.02503   -7.40051  -16.84192
       O   -16.00742   -7.30490  -16.90593
      H1   -16.40414   -7.48867  -17.75045
       H   -14.65890   -9.93613  -16.54134
       O   -13.94960   -9.49698  -16.00357
      H1   -13.66116  -10.18195  -15.41230
       H   -18.99118   -7.67548  -19.45300
       O   -18.30448   -7.84356  -18.77432
      H1   -18.50241   -8.76492  -18.48207
       H   -16.60793  -10.90061  -17.55927
       O   -16.29274  -10.81838  -16.65368
      H1   -16.93164  -10.28459  -16.17897
       H   -15.20460   -5.78367  -14.67312
       O   -15.90844   -5.80647  -14.03077
      H1   -16.00797   -6.68494  -13.69822
       H   -13.90771   -4.48846  -18.74717
       O   -14.49474   -3.67119  -18.90198
      H1   -14.39769   -3.65461  -19.82755
       H   -19.76358   -2.74965  -15.89291
       O   -19.12039   -2.59704  -16.62470
      H1   -19.28268   -1.70006  -16.97707
       H   -13.96754   -4.78140  -16.54634
       O   -13.68104   -5.65714  -16.35133
      H1   -12.91759   -5.62717  -15.73020
       H   -16.26431   -0.94384  -16.17759
       O   -16.60469   -1.58323  -15.45851
      H1   -17.29289   -2.18587  -15.79302
       H   -17.79460   -4.68443  -16.73081
       O   -17.42896   -4.97132  -17.57381
      H1   -16.70609   -5.55704  -17.32219
       H   -18.30468   -7.32789  -12.16796
       O   -17.39073   -7.42396  -11.94871
      H1   -17.14891   -6.64135  -11.57461
       H   -17.69133  -10.33005  -13.73962
       O   -17.97675  -11.22214  -13.62036
      H1   -17.64147  -11.49091  -12.76698
       H   -14.95829   -2.49061  -15.01920
       O   -14.09644   -2.84833  -15.11461
      H1   -13.76147   -3.07362  -14.23346
       H   -18.34968   -8.67816  -15.47184
       O   -17.45513   -8.89528  -15.11370
      H1   -16.96044   -8.20043  -15.60382
       H   -19.66342  -10.89734  -17.73043
       O   -19.19580  -10.47123  -18.42659
      H1   -18.39402  -10.92573  -18.70708
       H   -19.54122   -5.93423  -16.14475
       O   -19.96891   -6.57590  -16.77687
      H1   -19.26120   -6.71026  -17.44754
       H   -15.90120   -4.87412  -12.32437
       O   -15.63804   -5.04080  -11.39916
      H1   -15.13617   -5.86862  -11.26859

