57
frame 0 | Written by MDAnalysis XYZWriter (release 2.4.3)
       H    17.30267    4.84586    6.40557
       O    17.30596    3.97010    6.84108
      H1    16.53380    3.98729    7.49805
       H    16.66686    6.72114    5.07545
       O    17.41722    6.20607    5.11377
      H1    18.25174    6.73900    4.98264
       H    14.66790    2.72132    9.15535
       O    15.54458    3.11154    8.98616
      H1    15.39269    4.02595    9.37666
       H    13.86005    8.77027    2.17379
       O    14.52975    8.06800    2.41656
      H1    14.94027    7.83870    1.53623
       H    12.68022    4.55104    5.08973
       O    12.61289    3.94216    4.33368
      H1    11.64202    3.77620    4.30094
       H    15.00025    9.97957    8.44960
       O    15.19576    9.33405    9.19480
      H1    15.70527    8.67703    8.79799
       H    12.92845    6.03617    7.01776
       O    12.70319    6.01048    6.09870
      H1    11.84992    6.49104    5.96898
       H    15.87534    8.79795    2.86154
       O    16.64133    9.17822    3.38894
      H1    17.43851    9.20850    2.74802
       H    18.91075    9.01968    7.07100
       O    19.06778    8.39292    7.78138
      H1    18.32755    7.74510    7.81741
       H    18.66804    9.76748    4.84570
       O    18.52806   10.21687    5.69937
      H1    19.27560   10.87052    5.70348
       H    16.09272    6.80006    8.38156
       O    16.47264    7.38004    7.72260
      H1    16.09438    7.24752    6.87180
       H    16.98320   11.68105    8.29282
       O    16.90187   11.91310    7.36137
      H1    17.36845   11.26898    6.80645
       H    15.16408    8.00654    4.67451
       O    15.01764    7.42136    5.40230
      H1    14.17150    7.01188    5.43872
       H    15.15690   11.46833    7.19057
       O    14.23531   11.12119    7.33114
      H1    13.90719   10.99867    6.43652
       H    15.69067   11.22303    5.17982
       O    15.05067   11.70389    4.65241
      H1    15.51958   12.10979    3.94414
       H    12.64083    5.95043    9.82979
       O    12.57592    5.39515    9.05166
      H1    11.81493    4.83593    9.23351
       H    16.61834    3.90767    2.79781
       O    17.47312    4.18624    3.20663
      H1    17.28017    4.97970    3.75886
       H    18.83896   10.36795   10.26620
       O    17.88742   10.40677   10.58988
      H1    17.47825    9.54630   10.28329
       H    14.60712    5.66265    9.71645
       O    15.56454    5.72004    9.70861
      H1    15.84862    5.66251   10.60937

