57
frame 4 | Written by MDAnalysis XYZWriter (release 2.4.3)
       H   -18.15923   -3.12216  -11.13715
       O   -17.86349   -2.74747  -11.98187
      H1   -18.18556   -3.52868  -12.53033
       H   -16.12925    0.55672  -13.66776
       O   -15.33685    0.17462  -13.27854
      H1   -14.73518    0.10737  -14.03569
       H   -17.82524   -5.72677  -13.90524
       O   -18.78244   -5.45330  -13.94221
      H1   -19.21061   -5.69027  -13.08372
       H   -15.87363   -3.15737  -11.88064
       O   -14.91232   -3.27423  -11.95901
      H1   -14.72363   -4.08465  -11.44227
       H   -17.42887    0.45556  -17.19108
       O   -17.20889    0.73265  -16.31055
      H1   -16.33073    1.10518  -16.37742
       H   -15.80341   -7.96564  -16.98786
       O   -16.72018   -7.68702  -17.10948
      H1   -16.98041   -8.10513  -17.94158
       H   -13.57266   -2.20761  -12.70218
       O   -12.77010   -1.82560  -13.08212
      H1   -13.06598   -1.40348  -13.91590
       H   -15.85594   -0.03264  -19.52859
       O   -14.99964    0.11923  -19.92232
      H1   -14.26900   -0.13833  -19.30080
       H   -19.65180   -0.89811  -13.27343
       O   -19.31217   -1.18981  -14.11564
      H1   -18.37414   -1.40058  -13.87079
       H   -15.64271   -6.66352  -14.53302
       O   -16.22978   -6.71376  -13.73243
      H1   -16.70534   -7.56083  -13.82998
       H   -11.51083   -3.22731  -13.62648
       O   -10.73183   -3.65837  -14.07344
      H1   -11.01339   -4.53746  -14.41583
       H   -15.46021   -3.59059  -18.68916
       O   -14.64669   -3.16904  -18.92281
      H1   -14.81984   -2.75998  -19.80636
       H   -14.67556   -5.22191  -15.88577
       O   -14.57687   -6.17743  -15.94003
      H1   -13.60044   -6.29798  -15.78491
       H   -17.67288   -1.37309  -15.87614
       O   -17.21294   -2.22541  -15.78320
      H1   -17.91092   -2.91393  -15.97851
       H   -17.92429   -4.50845  -18.02240
       O   -16.95933   -4.54820  -18.21360
      H1   -16.70398   -5.26239  -17.65017
       H   -15.75423   -3.10162  -15.71784
       O   -14.94153   -3.51402  -15.40877
      H1   -15.18922   -3.55495  -14.49038
       H   -12.40808   -1.14238  -18.06942
       O   -13.27896   -0.79686  -17.97386
      H1   -13.78500   -1.61168  -17.91832
       H   -13.93004   -6.52322  -17.87746
       O   -13.77260   -6.32149  -18.76070
      H1   -13.83050   -5.36080  -18.78606
       H   -13.24324   -0.35487  -16.28420
       O   -13.10879   -0.21424  -15.34524
      H1   -12.31183    0.32449  -15.30735

