57
frame 4 | Written by MDAnalysis XYZWriter (release 2.4.3)
       H   -19.59179    0.37658  -10.84356
       O   -18.85454    0.82473  -10.42544
      H1   -18.60387    0.25308   -9.71717
       H   -17.75839    1.45671  -14.82314
       O   -17.82274    1.79432  -13.89568
      H1   -17.20453    2.52956  -14.00016
       H   -16.12925    0.55672  -13.66776
       O   -15.33685    0.17462  -13.27854
      H1   -14.73518    0.10737  -14.03569
       H   -17.79988    4.10247  -10.77600
       O   -18.02929    3.54803  -11.50897
      H1   -18.27332    2.73352  -11.10492
       H   -14.18198    1.74186  -15.20497
       O   -14.75351    2.15719  -15.86810
      H1   -15.12982    2.88822  -15.33425
       H   -15.88260    6.48687  -16.56345
       O   -15.76661    5.52805  -16.58393
      H1   -14.87711    5.29544  -16.85472
       H   -17.42887    0.45556  -17.19108
       O   -17.20889    0.73265  -16.31055
      H1   -16.33073    1.10518  -16.37742
       H   -18.99021    3.24227  -18.08519
       O   -19.40782    2.44098  -18.43800
      H1   -18.67675    1.76864  -18.36830
       H   -15.53363    1.29697  -11.73294
       O   -15.74084    2.11888  -11.19781
      H1   -16.53751    2.48641  -11.63181
       H   -19.65180   -0.89811  -13.27343
       O   -19.31217   -1.18981  -14.11564
      H1   -18.37414   -1.40058  -13.87079
       H   -18.53699    4.23183  -13.01418
       O   -18.93006    4.74857  -13.73332
      H1   -19.63350    4.16055  -14.16690
       H   -17.53107    0.96980  -19.76021
       O   -17.64292    0.28374  -19.05757
      H1   -17.82968   -0.56687  -19.46753
       H   -14.76733    5.52044  -11.80179
       O   -14.47305    4.77775  -12.39779
      H1   -14.81619    3.96585  -11.95475
       H   -17.67288   -1.37309  -15.87614
       O   -17.21294   -2.22541  -15.78320
      H1   -17.91092   -2.91393  -15.97851
       H   -13.76978    3.84967  -18.61817
       O   -13.33021    3.98824  -17.76779
      H1   -13.72176    3.31410  -17.17048
       H   -18.84317    4.89150  -16.35152
       O   -18.58584    4.75358  -17.22392
      H1   -17.61263    4.82868  -17.25049
       H   -13.24324   -0.35487  -16.28420
       O   -13.10879   -0.21424  -15.34524
      H1   -12.31183    0.32449  -15.30735
       H   -16.25037    4.48505  -15.04272
       O   -16.02195    3.86407  -14.33239
      H1   -15.46014    4.35889  -13.71264
       H   -17.99717    6.14141  -13.51965
       O   -17.69774    7.03313  -13.31385
      H1   -18.37667    7.61490  -13.04657

