57
frame 0 | Written by MDAnalysis XYZWriter (release 2.4.3)
       H    -5.43881   -2.34457   -5.83510
       O    -5.73363   -2.49432   -6.73802
      H1    -5.34600   -1.86226   -7.32451
       H    -9.15269   -1.83774   -7.96269
       O    -8.82781   -2.76026   -8.21966
      H1    -7.97996   -2.69230   -8.71149
       H    -5.37488   -1.90796   -3.26397
       O    -4.87568   -2.57039   -3.75872
      H1    -3.90225   -2.35044   -3.73598
       H    -8.90134   -7.17954   -5.01253
       O    -8.54963   -6.75294   -4.19346
      H1    -8.59261   -5.81616   -4.17270
       H    -6.15849   -4.95790   -9.19229
       O    -6.91565   -5.44163   -8.72857
      H1    -7.00084   -5.20208   -7.82546
       H    -9.06085   -2.84291   -4.23210
       O    -8.39146   -2.52603   -4.85543
      H1    -8.40196   -3.21865   -5.56395
       H    -6.96539    1.81106   -7.21508
       O    -7.10188    0.85297   -7.03541
      H1    -6.65057    0.65828   -6.18810
       H   -11.59336   -4.34049   -5.40973
       O   -11.37428   -3.59499   -4.77791
      H1   -12.10389   -3.00206   -4.97473
       H    -6.78797   -7.07460   -4.26520
       O    -5.83590   -6.99209   -4.47884
      H1    -5.72779   -7.24982   -5.42210
       H    -5.83096   -5.46462   -3.26200
       O    -6.03322   -4.72136   -2.66600
      H1    -5.59178   -3.97369   -3.11345
       H    -8.80846   -0.02221   -6.76942
       O    -9.57769   -0.57253   -6.63229
      H1    -9.32878   -1.17629   -5.88224
       H   -11.49590   -3.04164   -7.50004
       O   -11.98368   -2.86745   -8.33004
      H1   -11.37216   -2.48630   -8.92543
       H    -6.29405   -0.11937   -3.80979
       O    -6.98980   -0.42220   -3.29303
      H1    -7.44057   -1.13031   -3.74070
       H    -9.25120   -4.73379   -8.75309
       O   -10.10222   -5.15348   -8.97922
      H1    -9.94300   -5.79948   -9.64593
       H   -12.12188   -5.44242   -2.01973
       O   -12.45936   -4.56368   -2.31538
      H1   -11.82076   -4.30381   -3.00224
       H   -10.42077   -1.97665   -2.11946
       O    -9.50629   -2.44720   -2.09928
      H1    -9.54384   -3.31834   -1.61777
       H   -11.62313   -0.05763   -4.23710
       O   -10.84230    0.44433   -4.48660
      H1   -10.44380    0.05077   -5.29393
       H   -10.85423   -5.51903   -7.54225
       O   -11.28195   -5.72866   -6.68556
      H1   -10.90607   -6.57349   -6.58447
       H    -6.55376   -5.44486   -5.73345
       O    -7.28863   -4.84323   -5.99848
      H1    -6.81364   -3.99884   -6.05812

