57
frame 3 | Written by MDAnalysis XYZWriter (release 2.4.3)
       H    16.54222   12.41008    3.49772
       O    16.24227   12.44803    2.59745
      H1    17.06257   12.40073    2.05783
       H    12.90440    9.18337    2.14407
       O    13.07483    8.21937    2.08346
      H1    13.28888    8.09590    1.13956
       H    16.07705   11.44077    0.11309
       O    15.87903   10.59613    0.54813
      H1    15.74506   10.81256    1.45621
       H    12.83717   11.70604    8.06588
       O    11.91712   11.90790    8.36455
      H1    12.07499   12.47966    9.14885
       H    14.77563   10.05976    9.16773
       O    15.02203    9.47118    9.97154
      H1    14.79425    8.57985    9.61190
       H    11.63930    7.79919    7.15809
       O    11.49387    8.39016    6.35577
      H1    10.51202    8.33670    6.28801
       H    16.18704    9.42091    4.21857
       O    15.73873    9.76749    4.98108
      H1    15.71831    9.05804    5.67092
       H    16.58495   11.12483    5.28682
       O    16.96711   12.03084    5.38230
      H1    17.92282   11.90562    5.33646
       H    15.53572    6.99979    7.01608
       O    15.21605    7.33195    6.18257
      H1    14.31573    7.03511    6.02157
       H     9.67854   10.32899    5.33871
       O     9.35818    9.83628    4.59098
      H1     8.64166   10.37960    4.20864
       H     9.75713   14.53199    5.39127
       O    10.18258   13.68136    5.44418
      H1    11.15257   13.86016    5.47929
       H    13.17595    7.30578    3.83094
       O    13.08153    6.63661    4.54127
      H1    12.19658    6.85266    4.80840
       H    13.58541   14.65339    6.08989
       O    12.62558   14.70710    6.07116
      H1    12.48235   14.17169    6.83665
       H    15.17831   11.63796    7.50171
       O    14.52657   10.94113    7.72033
      H1    13.97243   10.80206    6.92159
       H    12.54385    9.73753    5.57778
       O    13.09124   10.49694    5.32040
      H1    13.97481   10.11881    5.14919
       H    10.53394   11.09742    7.49205
       O     9.75732   11.22183    6.89619
      H1     9.78749   12.14380    6.58292
       H    15.88118   15.12431    5.58216
       O    15.43075   14.56907    6.25957
      H1    15.80955   13.70783    6.16155
       H    12.33147   10.72585    3.65092
       O    11.83845   10.77146    2.81179
      H1    10.95474   10.61212    3.18415
       H    12.84667   13.19331    1.45247
       O    11.99674   13.06808    0.94235
      H1    11.77398   12.14742    1.21843

