57
frame 4 | Written by MDAnalysis XYZWriter (release 2.4.3)
       H   -20.07891  -12.36657   13.99088
       O   -19.28180  -12.85010   13.67055
      H1   -19.18645  -13.53033   14.26604
       H   -16.70349  -17.49549   16.65480
       O   -16.04878  -17.84238   16.02617
      H1   -16.46632  -18.46639   15.39239
       H   -17.97532  -10.21632   12.28345
       O   -17.81399  -11.15306   12.02639
      H1   -18.42229  -11.65260   12.60904
       H   -14.14392  -12.80286   16.97990
       O   -14.85882  -13.26800   17.49551
      H1   -14.92463  -14.03025   16.88547
       H   -17.85343  -15.52056   11.62701
       O   -17.13892  -15.10734   12.13446
      H1   -17.45021  -14.27408   12.49844
       H   -15.07407  -12.91484   12.69071
       O   -15.34771  -11.98061   12.74469
      H1   -16.19449  -11.77777   12.32074
       H   -18.78297  -15.63769   14.85884
       O   -18.49665  -14.91794   15.43575
      H1   -19.00563  -15.05077   16.21836
       H   -14.34487  -14.89149   12.45555
       O   -14.14957  -14.37910   13.23936
      H1   -14.66038  -14.72549   14.00117
       H   -19.77341  -19.08963   10.93051
       O   -19.02831  -18.69969   11.48895
      H1   -19.38894  -18.43937   12.31871
       H   -18.40055   -9.24691   15.93913
       O   -19.05103   -8.86998   16.56810
      H1   -19.50294   -9.65508   16.87434
       H   -14.18943  -18.67173   16.57453
       O   -13.29510  -18.89777   16.76795
      H1   -12.73521  -18.10409   16.52381
       H   -19.23219  -16.99207   10.59544
       O   -19.18628  -16.03979   10.75443
      H1   -19.10169  -15.61974    9.89763
       H   -16.28767  -10.56865   17.84787
       O   -16.15897  -10.22677   18.77225
      H1   -16.08077   -9.22090   18.72809
       H   -17.00850  -15.38826   18.71803
       O   -17.29490  -16.31385   18.45788
      H1   -18.24490  -16.30699   18.21249
       H   -17.97555  -16.64525   13.39977
       O   -18.86602  -16.87678   13.76905
      H1   -18.72515  -17.69051   14.26820
       H   -16.30837  -12.60285   16.48316
       O   -16.97635  -11.93520   16.24916
      H1   -17.21526  -12.21153   15.35413
       H   -15.71535  -15.32957   11.34072
       O   -14.96390  -15.71578   10.89881
      H1   -14.88878  -16.64279   11.21551
       H   -16.71024  -14.98263   15.40965
       O   -15.75931  -15.11678   15.35193
      H1   -15.57719  -16.03750   15.55177
       H   -14.91719  -10.79784   13.83690
       O   -14.61180  -10.20034   14.56359
      H1   -13.99065   -9.52514   14.32098

