57
frame 5 | Written by MDAnalysis XYZWriter (release 2.4.3)
       H    10.66572   -3.22075   15.55820
       O    10.39790   -3.57077   16.38724
      H1    10.42092   -4.54081   16.36671
       H     1.52774   -7.35410   14.24193
       O     2.05648   -6.87160   14.86786
      H1     2.99378   -6.91542   14.55610
       H     9.36414   -8.25698   13.76999
       O     9.84150   -7.49753   13.33984
      H1    10.10033   -7.89346   12.50419
       H     5.29072   -3.02643   16.16337
       O     6.01889   -2.87467   15.54214
      H1     5.64731   -2.68003   14.63272
       H     6.48029  -10.90320   19.20919
       O     6.16908  -10.22571   18.54928
      H1     6.93028   -9.82805   18.14510
       H     4.92933   -9.15825   14.65291
       O     5.47438   -8.95175   13.88165
      H1     5.02644   -9.18204   13.08525
       H     9.27999   -6.07177   16.04991
       O    10.00395   -6.15505   16.77174
      H1    10.65139   -6.64116   16.17871
       H     3.81359   -9.40189   16.66068
       O     4.36258   -9.99010   16.07290
      H1     5.06382  -10.29309   16.59681
       H     7.01972   -2.94665   17.86187
       O     7.83350   -3.51214   18.05115
      H1     8.52616   -3.14952   17.47337
       H     4.82910   -5.62610   13.39927
       O     4.70335   -6.22847   14.17628
      H1     4.84080   -7.09950   13.77596
       H     4.34898   -7.37000   19.87733
       O     4.26075   -6.72724   19.13479
      H1     4.77051   -7.06679   18.41025
       H     9.42822   -5.98833   19.90314
       O    10.22107   -6.51883   19.72277
      H1    10.27924   -6.32589   18.80300
       H     8.30102   -7.94823   17.75990
       O     8.39690   -8.83949   17.40808
      H1     9.24275   -9.18455   17.56603
       H     8.34249   -9.20466   15.55908
       O     8.14968   -9.46473   14.63722
      H1     7.31563   -9.04516   14.41218
       H     4.17685   -3.20426   17.65965
       O     4.81933   -2.62472   18.10826
      H1     4.60484   -2.71390   19.05009
       H     6.62945   -5.54253   14.75333
       O     7.46836   -5.25715   15.14041
      H1     7.25189   -4.29627   15.26976
       H     6.71600   -5.92873   16.69115
       O     6.89540   -6.11979   17.63283
      H1     7.24599   -5.22553   17.86735
       H     2.22587   -4.69109   17.06099
       O     2.88954   -4.05142   16.77770
      H1     2.74491   -3.84491   15.82593
       H     2.41856   -7.69956   16.44432
       O     2.49811   -8.39396   17.12221
      H1     2.68452   -7.83906   17.92745

