57
frame 0 | Written by MDAnalysis XYZWriter (release 2.4.3)
       H    17.15597  -11.63367   -0.33617
       O    17.88278  -11.10834   -0.71384
      H1    18.75126  -11.21390   -0.22978
       H    17.25766   -9.52996   -0.00490
       O    17.28958   -8.96834    0.77296
      H1    16.67159   -9.34757    1.38205
       H    16.75958  -11.42079    3.58374
       O    16.09859  -11.09198    4.19264
      H1    15.51634  -10.54285    3.64489
       H    18.45538  -11.28110    8.59856
       O    17.72750  -11.51229    9.24187
      H1    18.10019  -12.26504    9.80643
       H    14.55240   -6.61656    4.45469
       O    13.76318   -6.06655    4.55963
      H1    13.38272   -6.37016    5.41839
       H    14.99022  -13.28701    6.20662
       O    14.89155  -13.15269    5.26122
      H1    15.43145  -12.34254    5.04926
       H    13.88310  -10.29576    7.77102
       O    14.14280  -10.46565    6.81234
      H1    14.33161  -11.42427    6.86882
       H    14.12374   -9.31413    1.91104
       O    15.01221   -9.32978    2.23956
      H1    15.14723   -8.54133    2.75786
       H    17.02090   -7.29250    3.99181
       O    16.13166   -7.78215    3.98245
      H1    16.07931   -8.08753    4.87314
       H    18.94270  -10.94833    5.90359
       O    18.64466  -10.24076    5.27865
      H1    17.67022  -10.38204    5.21811
       H    13.99867   -5.87936    8.20027
       O    14.59688   -6.50360    8.64400
      H1    14.88892   -7.13440    7.91038
       H    15.23336  -13.19201    9.17494
       O    15.61606  -12.84956    8.31992
      H1    16.39830  -12.34241    8.69000
       H    19.00076   -8.81004    1.16839
       O    19.77387   -8.49255    1.72353
      H1    20.19836   -7.81850    1.09218
       H    15.96629  -15.81751    3.62301
       O    15.50241  -15.03541    3.29832
      H1    15.37703  -14.55933    4.12491
       H    18.85032   -7.17189    2.69604
       O    18.53070   -6.72918    3.55702
      H1    18.35184   -5.83398    3.26724
       H    18.57461   -9.09447    6.40872
       O    18.38372   -8.48630    7.13422
      H1    18.73588   -7.63582    6.83354
       H    15.26705   -9.24513    6.88047
       O    15.62175   -8.31137    6.83936
      H1    16.58127   -8.31172    6.97800
       H    20.22236   -6.09848    5.88358
       O    19.30977   -6.10906    6.17003
      H1    18.91849   -6.30093    5.23743
       H    18.38372   -8.42166    8.96381
       O    18.43159   -8.65550    9.92022
      H1    18.17244   -9.63978    9.93115

