57
frame 4 | Written by MDAnalysis XYZWriter (release 2.4.3)
       H     8.70132  -12.65193    9.79467
       O     9.04460  -13.35266    9.21759
      H1     8.46368  -14.03236    9.52378
       H     6.03964   -9.85123    8.94703
       O     5.93779  -10.33195    9.79591
      H1     6.86513  -10.25541   10.11966
       H     9.27077  -14.46540    6.97060
       O    10.13172  -14.33188    6.55122
      H1     9.88528  -13.93638    5.68120
       H     6.35540  -12.16993   11.51072
       O     6.33690  -13.01934   11.97634
      H1     6.68261  -13.70785   11.39163
       H     7.72208  -13.76680    3.01636
       O     6.95781  -13.79054    3.54558
      H1     6.11863  -13.88109    3.05322
       H     3.82075  -19.80798    7.71655
       O     3.74940  -19.08813    8.33133
      H1     3.85478  -18.23128    7.95806
       H     5.11532  -11.79012    8.69319
       O     4.23588  -12.18834    8.58390
      H1     4.51704  -12.88586    7.99455
       H     3.14521  -16.15449    7.19235
       O     3.48261  -16.26128    8.05090
      H1     2.69023  -16.01942    8.59620
       H     4.31872  -17.30150    4.22573
       O     3.53971  -17.88587    4.35753
      H1     2.78638  -17.28308    4.54954
       H     5.53120  -10.71889    5.99212
       O     5.28481  -11.28759    5.23674
      H1     6.05689  -11.37276    4.65888
       H     4.41739  -10.81631   10.90076
       O     3.73687  -11.01511   11.48965
      H1     3.42929  -11.91410   11.32565
       H     3.27212  -10.79505    7.63655
       O     2.49720  -10.22619    7.45109
      H1     2.66604  -10.02861    6.50281
       H     7.00891  -15.09369    5.02607
       O     7.27707  -15.48135    5.88582
      H1     7.38075  -16.42759    5.72299
       H     8.26331  -18.35458    6.58512
       O     7.61890  -18.30554    5.85286
      H1     6.96795  -19.06140    5.93493
       H     3.82174  -13.13994    5.21720
       O     3.01086  -13.63838    5.11797
      H1     3.05870  -14.26184    4.41440
       H     6.44871  -15.00704    9.44122
       O     7.09792  -14.97509   10.11466
      H1     7.50334  -15.87180   10.25280
       H     2.19490  -13.34052   10.80083
       O     3.09239  -13.64861   10.83899
      H1     3.52468  -13.42818   10.02136
       H     3.68022  -15.07911   11.64734
       O     3.76476  -15.75712   12.39659
      H1     3.57518  -16.55845   11.88729
       H     6.19559  -14.89833    7.24208
       O     5.56983  -14.57217    7.91710
      H1     4.88472  -15.21192    7.68235

