57
frame 5 | Written by MDAnalysis XYZWriter (release 2.4.3)
       H     9.27335  -12.09307    8.24962
       O     9.35659  -13.03550    8.11296
      H1     8.68420  -13.59859    8.49566
       H     5.86741  -10.07690    8.64667
       O     6.27789  -10.68983    9.22152
      H1     7.18995  -10.44021    9.42180
       H     9.45920   -8.85043    7.07079
       O     8.88076   -8.37658    6.51712
      H1     9.23702   -8.12737    5.63797
       H     8.38788  -11.22790   11.43438
       O     8.80330  -10.79727   10.65469
      H1     9.19186   -9.95777   10.95118
       H     6.40310   -5.97726    7.04817
       O     7.03677   -6.21405    7.76863
      H1     7.69573   -6.88546    7.37607
       H     5.00780  -12.64970   11.71438
       O     5.74166  -13.29404   11.92586
      H1     6.13592  -13.48938   11.09640
       H     5.47108  -12.29895    8.92148
       O     4.93969  -13.11444    8.98612
      H1     5.65698  -13.75648    9.09387
       H     5.90185   -8.96797    6.87713
       O     6.49544   -9.64437    6.52478
      H1     7.29547   -9.09021    6.57842
       H     4.92933   -9.15825   14.65291
       O     5.47438   -8.95175   13.88165
      H1     5.02644   -9.18204   13.08525
       H     1.13799  -10.28735    9.70247
       O     0.30155  -10.58315    9.46796
      H1     0.39757  -11.26753    8.78555
       H     6.05382  -11.68433    6.40978
       O     5.28693  -12.22216    6.22761
      H1     4.95907  -12.49436    7.10828
       H     5.42817   -7.39999    8.39715
       O     4.80960   -8.08172    8.06504
      H1     4.21731   -7.50226    7.55693
       H     3.24154   -9.45555   10.81808
       O     2.35198   -8.99182   10.75942
      H1     2.50524   -8.18863   10.23066
       H     5.33965  -10.34482   10.64862
       O     4.84355  -10.15843   11.42737
      H1     4.38080  -10.87231   11.73534
       H     2.69479  -11.49086    6.04816
       O     2.60227  -11.08102    6.88915
      H1     2.91218  -10.18647    6.76119
       H     3.55086   -9.78248    4.28664
       O     4.09443   -9.20359    4.88172
      H1     4.97334   -9.56605    4.96257
       H     4.03920  -12.55392    5.09353
       O     3.09028  -12.79467    4.91876
      H1     3.02066  -13.03766    3.99077
       H     2.19944  -12.55081   11.35015
       O     3.11186  -12.27683   11.14510
      H1     3.20949  -12.40968   10.20227
       H    10.56395   -9.51857    9.13552
       O    10.64186   -9.78106    8.21207
      H1    11.47579  -10.28326    8.19973

