57
frame 5 | Written by MDAnalysis XYZWriter (release 2.4.3)
       H    16.32529    9.53190   -6.63553
       O    15.85490   10.24099   -7.11138
      H1    15.20391   10.58757   -6.49094
       H    14.00003   11.53301  -11.63948
       O    14.70712   12.00512  -12.14846
      H1    14.39433   12.95268  -12.14381
       H    16.67227   11.64065  -11.98641
       O    17.55731   11.33095  -12.23005
      H1    18.14926   11.95063  -11.76457
       H    15.07286   10.04108   -8.66326
       O    14.98889    9.79834   -9.59650
      H1    14.13086   10.17154   -9.89677
       H    15.11593   13.74576   -9.19344
       O    15.03357   13.62225   -8.27734
      H1    15.91901   13.38249   -7.95001
       H    19.19182   11.32061   -8.15023
       O    19.73409   10.50182   -8.27890
      H1    19.20349   10.14948   -9.01924
       H    11.74426   10.54729  -10.43300
       O    12.34012   11.32810  -10.46479
      H1    12.27920   11.68823   -9.52825
       H    13.65946    8.69443  -12.52926
       O    12.69500    8.74831  -12.46692
      H1    12.46645    8.05697  -11.82612
       H    17.98611   12.79879   -6.42469
       O    17.54520   12.45400   -7.16312
      H1    17.08328   11.65177   -6.93243
       H    12.72027   12.08004   -7.45278
       O    11.95621   12.01784   -8.05115
      H1    11.58340   12.90062   -8.01792
       H    18.60994   12.84996   -9.90374
       O    18.93535   13.02558  -10.79226
      H1    19.13883   14.00612  -10.83401
       H    15.48973    8.03876  -11.51496
       O    15.40818    7.88472  -12.45607
      H1    16.13597    8.37058  -12.89511
       H    11.36970    6.27432   -9.85035
       O    12.12641    6.85646  -10.00359
      H1    12.68455    7.09173   -9.23491
       H    17.12103    9.42556  -10.13551
       O    18.01547    9.68921  -10.33319
      H1    17.87352   10.38473  -10.94983
       H    16.94607    7.25879   -7.38671
       O    17.13230    7.71364   -6.56695
      H1    18.07811    7.72135   -6.50772
       H    12.25764   10.51912   -6.31363
       O    13.12789   10.78211   -6.00927
      H1    13.53055   10.08650   -5.48955
       H    13.55235    7.90099   -7.38914
       O    13.56400    6.97804   -7.57842
      H1    14.50901    6.72255   -7.53302
       H    17.53231   10.17782  -13.31836
       O    17.37009    9.47222  -14.00998
      H1    16.89933    9.91211  -14.69670
       H    17.23237    6.69833   -9.29667
       O    16.30339    6.64735   -9.02617
      H1    15.88905    6.20010   -9.75820

