57
frame 4 | Written by MDAnalysis XYZWriter (release 2.4.3)
       H    13.58457   20.19113   11.76665
       O    14.17216   19.42471   11.69923
      H1    13.66724   18.84763   11.08570
       H    14.67227   16.40961    7.61802
       O    14.95567   16.90458    8.40886
      H1    15.75091   16.42745    8.75698
       H    10.12429   16.62672   10.63574
       O    10.71424   15.95472   10.44809
      H1    11.62032   16.33372   10.64728
       H    11.19567   16.77778    8.66977
       O    11.34127   17.53490    8.13897
      H1    10.60754   18.16184    8.31628
       H    17.08965   14.51936    9.19141
       O    17.06248   15.45628    9.39773
      H1    16.87335   15.44183   10.30665
       H    13.27487   16.63764    5.71027
       O    14.18366   16.76029    5.76686
      H1    14.29341   17.71963    5.63836
       H    17.38443   18.43273    5.32708
       O    17.25694   18.19025    4.43640
      H1    16.32692   18.37084    4.20700
       H    17.42682   12.12648    8.73755
       O    16.88952   12.85156    8.30613
      H1    16.94685   12.65939    7.37135
       H    14.17170   13.08452    5.97537
       O    13.25180   13.01163    5.79162
      H1    13.11061   12.10162    5.57232
       H    12.62739   18.82261    8.11688
       O    13.46449   19.33577    8.11760
      H1    14.05231   18.55484    8.11423
       H    17.33343   19.41491    7.63664
       O    18.01949   18.94390    7.18038
      H1    18.72573   19.58676    6.83076
       H    15.04767   12.09342    8.49853
       O    14.42504   11.42133    8.35470
      H1    14.48529   11.12183    7.46038
       H    13.80411   19.90071    4.43737
       O    13.89587   19.30727    5.20557
      H1    13.68411   19.87863    5.91115
       H    15.19608   16.01260   12.91625
       O    14.30394   15.78778   13.14892
      H1    14.12842   14.97635   12.70821
       H    17.85628   16.63753    4.70445
       O    18.36755   15.75495    4.69677
      H1    19.15862   15.91208    5.19014
       H    18.51816   16.31648    8.96836
       O    19.25248   16.80646    8.65752
      H1    18.90120   17.61887    8.31313
       H    13.78481   16.45927   11.53903
       O    13.34573   16.86999   10.79643
      H1    13.87527   16.73730   10.03415
       H    15.37170   15.25209    5.08184
       O    15.83275   14.41124    5.13627
      H1    16.77676   14.67848    4.97919
       H    17.05624   16.91898   12.61354
       O    16.70972   16.10210   12.13167
      H1    17.12119   15.41867   12.60143

