57
frame 5 | Written by MDAnalysis XYZWriter (release 2.4.3)
       H     9.27335  -12.09307    8.24962
       O     9.35659  -13.03550    8.11296
      H1     8.68420  -13.59859    8.49566
       H     5.86741  -10.07690    8.64667
       O     6.27789  -10.68983    9.22152
      H1     7.18995  -10.44021    9.42180
       H     8.38788  -11.22790   11.43438
       O     8.80330  -10.79727   10.65469
      H1     9.19186   -9.95777   10.95118
       H     9.27263  -14.21706    6.67868
       O     9.06176  -14.61372    5.83784
      H1     8.48262  -13.97693    5.36656
       H     5.00780  -12.64970   11.71438
       O     5.74166  -13.29404   11.92586
      H1     6.13592  -13.48938   11.09640
       H     5.47108  -12.29895    8.92148
       O     4.93969  -13.11444    8.98612
      H1     5.65698  -13.75648    9.09387
       H     7.80085  -17.68190   11.25414
       O     8.05069  -16.77821   11.36432
      H1     8.31139  -16.60500   12.26659
       H     5.90185   -8.96797    6.87713
       O     6.49544   -9.64437    6.52478
      H1     7.29547   -9.09021    6.57842
       H     2.86288  -17.19301    6.99118
       O     3.45396  -16.99379    7.76714
      H1     3.69027  -17.84972    8.09575
       H     6.05382  -11.68433    6.40978
       O     5.28693  -12.22216    6.22761
      H1     4.95907  -12.49436    7.10828
       H     8.02317  -11.30242   13.52599
       O     8.03941  -12.07453   12.97821
      H1     7.14446  -12.35048   12.86297
       H     5.33965  -10.34482   10.64862
       O     4.84355  -10.15843   11.42737
      H1     4.38080  -10.87231   11.73534
       H     2.69479  -11.49086    6.04816
       O     2.60227  -11.08102    6.88915
      H1     2.91218  -10.18647    6.76119
       H     2.36595  -16.11423    9.05076
       O     1.60584  -15.76707    9.60202
      H1     1.90023  -15.44909   10.46774
       H     4.03920  -12.55392    5.09353
       O     3.09028  -12.79467    4.91876
      H1     3.02066  -13.03766    3.99077
       H     6.84609  -15.36987    8.39493
       O     7.23436  -14.78360    9.08200
      H1     7.54853  -15.45195    9.71489
       H     2.19944  -12.55081   11.35015
       O     3.11186  -12.27683   11.14510
      H1     3.20949  -12.40968   10.20227
       H     5.31601  -15.17591   12.45072
       O     5.01474  -15.79063   13.06907
      H1     4.37193  -16.41278   12.74150
       H     6.26306  -16.37222    6.68820
       O     6.36551  -16.77336    7.57507
      H1     5.45176  -17.08285    7.61000

