57
frame 4 | Written by MDAnalysis XYZWriter (release 2.4.3)
       H    12.96757    9.79220  -15.55962
       O    12.67641   10.76530  -15.60874
      H1    13.52643   11.17917  -15.48470
       H    13.45942   14.15047  -17.65583
       O    14.07389   14.76708  -18.08834
      H1    14.22685   15.54802  -17.48968
       H    16.48761   14.40716  -17.02828
       O    16.58722   14.44485  -16.06706
      H1    15.85216   13.77763  -15.84769
       H    16.07613   14.99660  -13.05535
       O    16.85153   15.39405  -12.56567
      H1    16.80377   14.85775  -11.78208
       H    14.11517   11.82008  -11.64800
       O    14.76207   12.41236  -12.04744
      H1    14.46969   13.29273  -11.74625
       H    16.66777   12.14488  -11.49660
       O    17.55816   11.99492  -11.82511
      H1    18.11483   12.15381  -11.03583
       H    13.87371    7.45126  -15.47914
       O    13.79602    8.37341  -15.76914
      H1    13.38827    8.31032  -16.67382
       H    17.98571   13.23318  -14.93893
       O    18.55116   13.41404  -14.17192
      H1    18.27064   12.81237  -13.45363
       H    18.58735   10.94744  -18.42530
       O    17.66579   11.09482  -18.27019
      H1    17.37263   12.05119  -18.42788
       H    15.52433    9.68478  -15.99850
       O    16.25422   10.32142  -15.97543
      H1    16.66786   10.38542  -16.86256
       H    15.47550   11.79871  -15.11092
       O    14.96739   12.56190  -14.88246
      H1    14.74438   12.46141  -14.00574
       H    15.28153    8.41242  -11.09286
       O    15.02484    7.92169  -11.90767
      H1    15.69887    8.23620  -12.53602
       H    11.18788   10.85262  -14.49576
       O    10.33021   11.20043  -14.04472
      H1    10.00782   10.50466  -13.45283
       H    20.19459   15.88406  -14.74272
       O    19.25677   15.95818  -15.06886
      H1    18.84287   15.13811  -14.77816
       H    16.24711    6.40807  -16.72554
       O    17.02759    6.82459  -16.28099
      H1    16.70336    7.30635  -15.53728
       H    12.21176   14.20722  -12.10830
       O    13.01177   14.79816  -12.08388
      H1    12.92512   15.55628  -12.71661
       H    10.82933   12.49109  -18.09707
       O    11.72838   12.04878  -18.14278
      H1    12.03153   11.97741  -17.23440
       H    17.75624    7.92443  -14.03998
       O    16.97337    8.52149  -13.97438
      H1    17.05626    9.29733  -14.60686
       H    16.40911   13.98563  -19.37812
       O    16.83283   13.71268  -18.60537
      H1    17.80714   13.86204  -18.71852

