57
frame 4 | Written by MDAnalysis XYZWriter (release 2.4.3)
       H   -15.97800  -12.06378   -0.66182
       O   -16.57190  -12.04443   -1.41291
      H1   -16.95362  -12.91809   -1.43645
       H    -9.30729  -18.95618    1.56198
       O    -9.46999  -19.64370    0.88381
      H1   -10.37420  -19.93897    1.14589
       H   -10.14145  -16.99202    1.96904
       O    -9.40921  -17.44986    2.42752
      H1    -9.75056  -17.58705    3.34119
       H   -17.50729  -14.33758    2.21241
       O   -17.17624  -13.43755    2.51762
      H1   -16.98543  -13.60658    3.42511
       H   -16.07071  -17.83229   -0.24478
       O   -15.69478  -17.02756    0.15987
      H1   -15.20831  -17.25417    0.91017
       H    -9.75629  -19.05798   -0.84039
       O    -9.72905  -18.72520   -1.77827
      H1   -10.53219  -18.31234   -1.93864
       H   -15.44855  -17.45458    3.73783
       O   -15.33846  -18.05163    2.93018
      H1   -14.88770  -18.87393    3.28710
       H   -15.82530  -12.84120    1.39494
       O   -15.14997  -12.59400    0.79644
      H1   -14.59738  -11.90202    1.22318
       H   -12.22205  -16.69741    2.06000
       O   -11.65626  -16.61460    1.25325
      H1   -11.84764  -15.67842    1.03479
       H   -19.50147  -13.37774   -1.54592
       O   -18.64994  -13.86331   -1.59475
      H1   -18.75100  -14.33321   -2.43848
       H   -18.08912  -15.18157   -0.56314
       O   -18.11868  -15.95090    0.03294
      H1   -17.21689  -16.15098    0.24976
       H   -18.27994  -17.61734   -0.86599
       O   -17.97029  -18.41423   -1.39452
      H1   -18.06422  -19.19856   -0.78495
       H   -16.18220  -17.09696    5.65955
       O   -15.80889  -16.42230    5.13080
      H1   -15.16164  -16.05873    5.71813
       H   -13.03990  -14.37249   -0.77913
       O   -12.81822  -14.04325    0.17565
      H1   -13.61960  -13.59457    0.44381
       H   -12.39465  -17.71440   -2.00800
       O   -11.93249  -17.33904   -2.76191
      H1   -12.29245  -17.77318   -3.51874
       H   -13.92044  -15.71087    3.68015
       O   -12.96327  -15.90829    3.72041
      H1   -12.50299  -15.02475    3.97979
       H   -15.33757  -15.83700   -3.00237
       O   -16.01249  -16.06661   -3.63815
      H1   -15.72898  -16.83332   -4.08127
       H   -13.34462  -14.55237   -3.00664
       O   -13.65583  -15.09014   -2.24004
      H1   -13.03055  -15.80245   -2.15145
       H   -12.59712  -17.50276    0.20145
       O   -13.18922  -17.86634   -0.52390
      H1   -14.06590  -17.40884   -0.41728

