57
frame 5 | Written by MDAnalysis XYZWriter (release 2.4.3)
       H   -12.68896   19.59370  -17.32192
       O   -12.08778   19.21454  -18.04198
      H1   -11.23116   19.61917  -17.89864
       H   -16.25966   17.73125  -18.78372
       O   -16.03327   17.24270  -17.96931
      H1   -16.15489   16.29931  -18.21467
       H   -11.44976   15.38415  -14.45864
       O   -11.01674   14.51614  -14.16864
      H1   -10.30798   14.60759  -14.79275
       H    -6.42726   17.86661  -18.54148
       O    -6.49084   18.62387  -17.91542
      H1    -6.61472   19.38946  -18.47525
       H   -14.72484   20.20596  -16.41366
       O   -14.06138   19.61014  -16.04290
      H1   -14.50864   18.88678  -15.61685
       H    -8.97114   17.84875  -13.31332
       O    -8.73902   17.70172  -12.39182
      H1    -7.87577   17.25407  -12.27621
       H    -6.86824   18.42632  -16.20046
       O    -7.12063   18.21346  -15.27232
      H1    -7.98041   18.67968  -15.13083
       H   -12.29136   16.31017  -17.86399
       O   -11.55346   15.85858  -17.45901
      H1   -11.57999   14.92761  -17.69205
       H   -11.41381   12.55633  -18.96757
       O   -11.99815   13.28506  -18.81121
      H1   -12.15706   13.61678  -19.69886
       H    -8.01293   16.57952  -15.80139
       O    -8.52184   15.78216  -15.66679
      H1    -7.94722   15.18878  -15.03803
       H    -7.64388   12.98655  -18.26157
       O    -6.96637   13.38646  -17.62706
      H1    -7.34837   14.16443  -17.29917
       H   -10.21139   16.26763  -18.65930
       O    -9.61343   16.57623  -19.34256
      H1   -10.20124   17.16880  -19.89454
       H   -18.95885   17.30039  -17.17297
       O   -18.36163   17.77376  -16.53617
      H1   -17.51787   17.62087  -17.00882
       H   -11.39384   16.96629  -15.44275
       O   -11.90789   17.23325  -14.68046
      H1   -12.82881   17.19912  -14.94670
       H   -13.47013   13.41770  -17.87388
       O   -14.07807   13.19144  -17.15596
      H1   -14.99272   13.38498  -17.50287
       H   -10.60363   18.28774  -14.54536
       O    -9.78403   18.81147  -14.56542
      H1    -9.80806   19.60219  -14.00050
       H   -10.34441   19.93015  -11.51742
       O   -10.93413   19.77417  -10.77368
      H1   -10.94093   18.84530  -10.60255
       H   -15.67049   17.14417  -14.25809
       O   -14.75333   17.45301  -14.18689
      H1   -14.89039   18.18514  -13.57910
       H    -9.55278   19.43530  -16.42556
       O    -9.38343   19.79115  -17.32000
      H1    -8.60727   19.29832  -17.62943

