57
frame 6 | Written by MDAnalysis XYZWriter (release 2.4.3)
       H   -15.38880   13.39477  -13.20945
       O   -16.21609   13.66858  -12.83374
      H1   -16.05588   14.40170  -12.23038
       H   -19.53131   15.74837  -18.56108
       O   -19.87319   14.80854  -18.49956
      H1   -19.27890   14.26413  -17.95425
       H   -17.73831   16.39211  -13.84761
       O   -17.89623   16.17562  -14.75279
      H1   -18.09108   16.96641  -15.29315
       H   -16.18342   17.78650  -18.82755
       O   -15.83767   17.52353  -17.95731
      H1   -16.32275   16.72650  -17.75370
       H   -15.35089   19.78557  -16.45172
       O   -14.62724   19.25599  -15.98883
      H1   -14.78187   18.33436  -16.15761
       H   -18.65072   19.61024  -12.12995
       O   -19.08127   18.96994  -12.68588
      H1   -19.61962   18.33064  -12.11938
       H   -14.43700   15.61874  -12.74301
       O   -14.16491   15.56806  -11.77942
      H1   -13.31023   15.14276  -11.87914
       H   -12.44099   17.57272  -17.10044
       O   -11.97655   16.77124  -17.02963
      H1   -12.33433   16.08994  -17.58935
       H   -12.26107   13.70432  -18.09470
       O   -13.06378   14.20929  -17.99574
      H1   -13.51511   14.10758  -18.80798
       H   -15.98414   18.81113  -12.38385
       O   -16.48770   17.99291  -12.49785
      H1   -17.37523   18.44434  -12.53791
       H   -19.33765   13.99626  -11.89850
       O   -18.78183   13.97582  -11.08806
      H1   -18.79515   14.90172  -10.78970
       H   -19.08266   12.32040  -16.31596
       O   -18.53695   12.66779  -17.00633
      H1   -18.19984   11.99440  -17.62519
       H   -16.43939   18.56703  -10.29791
       O   -16.68143   18.28906   -9.42444
      H1   -16.40135   19.00057   -8.85484
       H   -18.44802   18.42890  -17.13540
       O   -17.98689   18.37498  -16.24666
      H1   -17.13785   18.26488  -16.60044
       H   -18.31382   17.45116   -9.49529
       O   -18.88748   16.69794   -9.52153
      H1   -19.13346   16.53408   -8.60827
       H   -12.35196   16.86492  -15.18980
       O   -12.21094   16.81801  -14.24618
      H1   -12.95975   17.13957  -13.75352
       H   -14.19393   12.95374  -17.09260
       O   -15.00525   12.52483  -16.73319
      H1   -15.59050   13.27548  -16.74152
       H   -15.89463   16.17364  -14.93662
       O   -15.16121   16.63228  -14.52292
      H1   -15.53749   17.24869  -13.87619
       H   -16.27561   14.67061  -18.37873
       O   -16.61098   14.88804  -17.45227
      H1   -17.25823   14.21124  -17.38474

