57
frame 6 | Written by MDAnalysis XYZWriter (release 2.4.3)
       H    -9.41350    8.71838    7.55118
       O    -8.57339    8.37505    7.85369
      H1    -8.77602    7.73034    8.45725
       H    -6.54337   13.56920    7.96043
       O    -6.34443   14.08681    8.76209
      H1    -7.08476   14.67446    8.96556
       H    -8.71656    9.57438    9.51828
       O    -8.54735   10.36668   10.10364
      H1    -8.51050    9.97193   10.95623
       H    -9.28436   13.96191   12.99651
       O    -8.30530   13.85741   13.10390
      H1    -7.98281   13.17883   12.45331
       H    -4.66634    8.40107   10.02829
       O    -5.16687    7.93685    9.37782
      H1    -5.21310    8.59548    8.61564
       H    -5.87437   11.72133   12.93866
       O    -6.66036   11.60946   12.36600
      H1    -6.30808   11.68483   11.44131
       H    -4.83681    9.82213   12.03974
       O    -4.08779    9.62720   11.48619
      H1    -3.29969    9.71622   12.07228
       H    -6.39521    6.27246    6.60879
       O    -7.05980    6.86009    6.18244
      H1    -7.55121    7.13853    6.94453
       H    -4.53217    9.31742    6.41310
       O    -5.26551    9.54722    7.08662
      H1    -6.04406    9.21465    6.56990
       H    -7.62926    8.71196   13.25123
       O    -8.19403    9.45163   12.86247
      H1    -7.56911   10.20456   12.94016
       H    -4.72933   15.29505    9.42473
       O    -4.05958   15.63733   10.07640
      H1    -4.35013   16.58366   10.08943
       H    -7.92457    6.68908   11.30673
       O    -7.71329    6.93166   10.37780
      H1    -6.81237    7.26187   10.26793
       H   -12.08663   10.14367    8.73186
       O   -11.64076   10.37717    9.54385
      H1   -12.40925   10.40432   10.18370
       H    -6.21494   12.52255    9.47591
       O    -6.08778   11.55658    9.66484
      H1    -6.89217   11.09728    9.45102
       H    -7.90988   15.32542   11.44197
       O    -8.14428   15.41800   10.51401
      H1    -9.07429   15.23937   10.57633
       H    -9.60209   12.08638    8.08592
       O    -9.45167   12.14316    7.11590
      H1    -9.90979   11.30983    6.91253
       H    -9.74829   11.94989   10.35096
       O   -10.04794   12.76317    9.87469
      H1   -10.90406   12.37912    9.68387
       H    -6.12508   11.35470    7.12187
       O    -6.52476   12.19245    6.84101
      H1    -7.46447   12.05564    6.97416
       H    -3.65726   12.95681    5.48578
       O    -3.82907   11.99720    5.43991
      H1    -4.74649   11.98271    5.69689

