57
frame 5 | Written by MDAnalysis XYZWriter (release 2.4.3)
       H    17.98858   15.28356   -5.46090
       O    17.25633   15.87719   -5.59938
      H1    16.41159   15.44196   -5.83498
       H    18.78098   17.24663   -8.13222
       O    17.85314   17.35053   -7.85698
      H1    17.79337   16.81749   -7.06771
       H    13.84184   15.90155    2.29724
       O    13.78275   15.04246    1.89506
      H1    14.71777   14.75227    1.86469
       H    18.80555   14.43329    1.04555
       O    19.24014   15.13234    0.50567
      H1    18.54867   15.83121    0.39137
       H    10.56096   19.33543    1.03674
       O    11.33943   19.54896    1.48667
      H1    11.25477   19.23683    2.39046
       H    14.74064   19.24309   -1.36701
       O    14.77669   19.35740   -2.29832
      H1    14.95905   18.46242   -2.70087
       H    10.80674   18.69208   -6.32529
       O    10.89250   18.31444   -7.20669
      H1    11.35373   17.48390   -6.93855
       H    16.25891   16.60639   -0.63301
       O    17.09613   17.03410   -0.32958
      H1    17.19564   17.82979   -0.85312
       H    11.90137   18.42937   -1.83729
       O    12.18401   18.99063   -2.55279
      H1    13.13241   19.12755   -2.50708
       H    14.23334   15.37833    0.03707
       O    14.04625   16.02878   -0.61126
      H1    13.52560   16.65199   -0.08982
       H    12.79346   15.13885   -1.64881
       O    12.56120   14.32901   -2.16018
      H1    11.64311   14.41249   -2.39947
       H    10.37941   16.44929   -1.85036
       O    10.79960   17.02426   -1.20685
      H1    10.13310   17.78983   -1.08128
       H    14.44272   13.94728   -5.29399
       O    14.88549   14.65240   -5.78076
      H1    15.03494   14.29566   -6.68422
       H    13.74310   19.89908   -5.09727
       O    13.99566   19.00773   -5.41848
      H1    13.24491   18.53747   -5.76714
       H    10.91227   19.20491   -3.93485
       O    10.21834   18.91465   -4.56705
      H1     9.73161   19.66607   -4.78315
       H    14.89813   13.32815   -2.02471
       O    15.22404   12.55128   -1.65517
      H1    14.66793   11.82959   -1.96011
       H    17.44985   18.11393   -3.48374
       O    18.39566   18.10815   -3.22680
      H1    18.83539   18.51107   -3.96726
       H    15.15226   18.01979   -4.65987
       O    15.65792   17.41997   -4.09578
      H1    16.21501   16.91581   -4.68356
       H    13.25932   15.82111   -5.63690
       O    12.56641   16.44514   -5.81022
      H1    12.21214   16.56349   -4.91485

