57
frame 6 | Written by MDAnalysis XYZWriter (release 2.4.3)
       H    -3.50580   -2.34515  -16.77547
       O    -2.99175   -2.45736  -15.98763
      H1    -3.61022   -2.32640  -15.22450
       H     1.54142    2.78697  -15.36475
       O     0.76495    3.24707  -14.94956
      H1     0.39058    2.65868  -14.28190
       H    -4.80485   -0.38321  -14.93280
       O    -5.47508   -1.06067  -14.86544
      H1    -5.61321   -1.27101  -13.98474
       H     0.55361    2.33060  -19.00847
       O     1.26453    2.58931  -19.55151
      H1     1.42520    3.49589  -19.34828
       H    -3.26410    1.51680  -18.39352
       O    -3.80421    1.30723  -19.13633
      H1    -4.10101    2.16352  -19.48110
       H     0.98394   -0.33577  -15.39588
       O     1.19090   -0.39060  -16.33362
      H1     1.83017    0.32678  -16.44071
       H    -4.11475   -0.64670  -18.80844
       O    -4.00999   -1.47555  -18.37960
      H1    -4.06855   -2.18246  -19.02643
       H    -1.34431    1.03139  -19.87672
       O    -0.86639    0.37484  -19.34687
      H1    -1.34194    0.30346  -18.53698
       H    -1.54337    3.16924  -17.13430
       O    -0.62497    3.26792  -17.41437
      H1    -0.07172    3.35791  -16.64783
       H    -0.80313   -4.21209  -17.85419
       O    -0.81385   -3.29514  -18.25206
      H1    -1.27213   -2.77190  -17.61053
       H    -2.48428    0.47632  -15.10151
       O    -3.36170    0.73281  -14.68590
      H1    -3.26556    0.52788  -13.77506
       H    -3.35531    2.28028  -15.88589
       O    -3.24726    2.78223  -16.68256
      H1    -3.51705    3.66733  -16.40958
       H    -0.47485   -0.16599  -16.56988
       O    -1.41985   -0.14589  -16.61747
      H1    -1.63957   -1.00289  -16.22437
       H    -6.35655    1.91436  -18.73234
       O    -6.81099    2.37694  -19.46690
      H1    -7.62972    1.86344  -19.52013
       H    -1.86690    5.43286  -19.06580
       O    -0.92025    5.68122  -19.06547
      H1    -0.59117    4.87223  -18.63526
       H     1.23599   -2.70636  -18.57166
       O     2.03927   -2.61454  -19.07430
      H1     2.62386   -2.01694  -18.59492
       H     3.36145    2.13212  -15.30481
       O     2.83945    1.79425  -16.06784
      H1     3.16596    2.42519  -16.76797
       H     2.43069   -1.62216  -15.70506
       O     3.14773   -2.09693  -15.31899
      H1     3.04095   -1.94100  -14.36024
       H     3.81313   -1.16790  -16.90915
       O     3.75318   -0.88341  -17.81609
      H1     4.10738    0.04485  -17.88869

