57
frame 6 | Written by MDAnalysis XYZWriter (release 2.4.3)
       H     8.04991   10.10401    3.80057
       O     8.59952   10.04280    3.00430
      H1     8.97278   10.97560    3.00586
       H    10.14251    6.39409    5.26554
       O     9.55856    5.79381    4.82410
      H1     9.82456    4.91215    4.94995
       H     8.76147    9.69125    0.94971
       O     9.57298    9.78388    0.38454
      H1     9.57579    8.92410   -0.08182
       H    12.47004    7.29429    6.30202
       O    12.46853    7.78434    5.45178
      H1    11.60214    8.21668    5.35823
       H    10.89574    6.36703    1.62496
       O    11.02583    5.45776    1.39496
      H1    11.58325    5.46877    0.62909
       H     7.86493    6.04905    4.09918
       O     6.96661    5.92898    3.77803
      H1     6.99419    6.01295    2.76970
       H     9.99578    9.97627    5.97485
       O    10.05571    9.18530    5.38312
      H1     9.67788    9.47752    4.55870
       H     4.85402    8.36714    0.17494
       O     5.78253    8.45365    0.18262
      H1     5.99138    9.37532    0.00762
       H     5.37921   11.32540    3.23389
       O     5.89064   10.83029    3.88779
      H1     5.41996   10.00001    4.06587
       H     8.52487   10.76682   -2.24766
       O     8.31492   11.29069   -1.41690
      H1     8.71815   10.80145   -0.71456
       H     5.89906   11.57668    5.55740
       O     5.70009   11.86299    6.41071
      H1     6.19020   11.31259    7.05101
       H    10.32975   11.44982    7.76860
       O     9.74445   11.56441    6.95752
      H1    10.27572   12.04596    6.34763
       H    10.33831    8.76906    1.92302
       O    10.63283    7.96160    2.37912
      H1    11.59424    8.12019    2.27876
       H    11.53850   12.62858    1.15236
       O    11.02410   12.28772    0.42598
      H1    11.37325   12.86421   -0.27830
       H     7.67029   12.76912    1.69671
       O     6.87097   12.84020    1.14871
      H1     7.00911   13.64614    0.55811
       H    10.78296   15.24943    0.73764
       O     9.86258   14.97738    0.88808
      H1     9.80751   14.15920    1.41746
       H     4.12969    8.12866    4.68567
       O     4.69393    8.12652    3.89065
      H1     5.40075    7.44114    4.04742
       H    10.12664   13.09284    3.13252
       O     9.48763   12.65436    2.57638
      H1     9.95395   12.26582    1.75941
       H     5.53604   13.09717    2.07972
       O     4.91577   13.41540    2.78032
      H1     4.04551   12.94530    2.60165

