57
frame 0 | Written by MDAnalysis XYZWriter (release 2.4.3)
       H   -11.84447  -17.21328    6.92943
       O   -11.38550  -17.55676    6.21785
      H1   -11.64296  -17.23176    5.42140
       H   -18.42700  -16.31768    4.49503
       O   -18.87594  -15.45897    4.47650
      H1   -19.80290  -15.74643    4.36660
       H   -18.40190  -13.97074    3.55857
       O   -18.13070  -13.04716    3.41241
      H1   -17.13597  -13.05360    3.36010
       H   -15.49663  -15.11817   -0.24114
       O   -14.89189  -15.63527    0.26689
      H1   -15.41875  -16.30905    0.81982
       H   -16.31185  -17.54642    2.82462
       O   -15.73768  -17.45001    2.01300
      H1   -15.77022  -18.33472    1.53168
       H   -17.30529  -11.84850    1.10367
       O   -16.38148  -12.07766    1.09413
      H1   -16.19172  -12.43422    1.99740
       H   -11.70422  -15.94775    3.00839
       O   -10.73713  -15.74280    3.00153
      H1   -10.61877  -15.10232    3.78756
       H   -13.08065  -19.04660    7.65951
       O   -13.95274  -18.91050    7.22719
      H1   -13.72768  -19.19789    6.29357
       H   -18.01962  -14.82123   -1.13108
       O   -17.17144  -14.41943   -0.83187
      H1   -17.50008  -13.73029   -0.21858
       H   -14.61646  -13.11702    2.95249
       O   -15.34120  -13.32569    3.56973
      H1   -15.13368  -12.80918    4.36155
       H   -15.70362  -17.76706    7.07833
       O   -16.38696  -17.27176    6.63761
      H1   -17.23050  -17.51782    7.06163
       H   -16.88095  -19.61488   -2.89021
       O   -17.60965  -19.07442   -2.60225
      H1   -18.08463  -19.61368   -1.99979
       H   -18.06395  -18.78260    4.30597
       O   -17.40696  -18.07747    4.24322
      H1   -16.87092  -17.97351    5.04669
       H   -13.72083  -12.77462    0.19941
       O   -13.45436  -13.24659    0.98438
      H1   -13.71119  -14.21591    0.93990
       H   -18.53901  -16.49885    1.25591
       O   -19.45837  -16.33497    0.94636
      H1   -19.63225  -17.01925    0.27758
       H   -14.84653  -15.02663    4.51839
       O   -14.49006  -15.65913    5.14190
      H1   -15.21007  -15.87595    5.75945
       H   -12.39769  -17.27688   -2.10537
       O   -12.07197  -16.59666   -2.73602
      H1   -12.46193  -16.83458   -3.60961
       H   -14.05125  -17.28653    2.52739
       O   -13.41054  -17.22451    3.24885
      H1   -13.86274  -16.59376    3.81254
       H   -12.80932  -18.27564   -0.07679
       O   -13.43205  -18.22589   -0.79879
      H1   -13.96240  -17.42827   -0.72505

