57
frame 5 | Written by MDAnalysis XYZWriter (release 2.4.3)
       H    11.98825   -6.16027   10.26801
       O    11.01167   -6.11326   10.20834
      H1    10.68622   -5.30879   10.66910
       H    12.30610   -5.71115    3.30452
       O    13.04621   -5.66613    3.94789
      H1    13.78327   -6.10821    3.59959
       H    14.19502   -6.44383   11.16848
       O    13.67694   -6.66527   10.37425
      H1    14.23917   -6.26405    9.69952
       H    13.35434   -8.73054    6.57188
       O    13.65947   -9.64128    6.57824
      H1    14.62120   -9.58974    6.61125
       H    11.71365   -3.58528    6.61820
       O    12.37866   -3.73765    7.29734
      H1    13.11917   -3.73596    6.75634
       H    18.90520   -4.15612    6.24890
       O    18.42581   -3.44523    6.62929
      H1    17.71427   -3.74498    7.22564
       H    14.65149   -0.67936    8.55112
       O    15.10383   -1.25370    9.25636
      H1    15.56303   -1.99008    8.75766
       H    16.24817   -6.45234    3.82878
       O    15.43817   -6.89085    4.09863
      H1    15.64438   -7.43753    4.93365
       H    13.75092   -3.81788    4.34280
       O    13.92686   -3.06401    4.90102
      H1    14.92547   -3.04339    4.94196
       H    14.52862   -8.50536    9.69801
       O    14.94543   -9.27836    9.29604
      H1    14.22083   -9.73673    8.85728
       H    16.57562   -1.39890    5.17313
       O    16.67032   -2.34516    4.96475
      H1    17.24102   -2.70424    5.69193
       H    15.76468   -4.48254    8.54422
       O    16.25435   -3.68308    8.70876
      H1    16.84248   -3.84575    9.43983
       H    13.60809   -5.40507    7.81064
       O    14.46367   -5.73736    8.05391
      H1    14.67059   -6.34283    7.33627
       H    11.83224   -6.88117    6.71081
       O    12.61509   -7.10967    6.14414
      H1    12.60819   -6.54189    5.39533
       H    15.27831   -7.23955   13.03275
       O    15.41110   -6.54849   12.36475
      H1    15.02447   -5.74720   12.75264
       H    11.44072   -5.40907    7.52447
       O    10.64316   -5.98505    7.36580
      H1    10.48679   -6.40975    8.20248
       H    18.37632   -7.08731   11.06389
       O    18.24146   -6.33873   11.67572
      H1    17.27518   -6.40066   11.79594
       H    15.83756   -8.82168    7.89526
       O    16.14209   -8.43225    7.02551
      H1    17.13016   -8.18743    7.04584
       H    11.59198   -2.39180    9.79922
       O    12.40410   -1.89757   10.07189
      H1    13.17971   -1.97451    9.47446

