57
frame 6 | Written by MDAnalysis XYZWriter (release 2.4.3)
       H     2.55365   10.37333   -1.78925
       O     2.47719    9.67279   -2.44343
      H1     2.65349    8.79704   -2.10247
       H     1.94593    3.71241    2.02912
       O     1.66143    4.32071    2.74876
      H1     1.56670    5.13361    2.31578
       H     0.02327    5.27256    4.40393
       O     0.40275    5.92047    5.03951
      H1     1.38244    5.80017    5.07309
       H     2.75337    5.24448    0.01467
       O     3.06630    4.35615   -0.15558
      H1     2.44702    3.67654   -0.19663
       H     2.78571    6.40498    6.40142
       O     3.07520    6.15073    5.53136
      H1     3.82523    5.51599    5.75384
       H     2.79991   12.55820   -0.48935
       O     3.01450   11.65609   -0.60843
      H1     3.97771   11.64634   -0.81205
       H     0.64428    7.48215    0.45503
       O     1.44531    7.05793    0.77207
      H1     2.03400    7.74977    1.14701
       H     1.60721    9.20548    5.28758
       O     2.30213    9.31539    5.96839
      H1     2.26841   10.25455    6.12549
       H     2.45703    7.10593   -0.61975
       O     2.94808    7.15246   -1.47894
      H1     2.37764    6.71953   -2.17877
       H     4.85402    8.36714    0.17494
       O     5.78253    8.45365    0.18262
      H1     5.99138    9.37532    0.00762
       H     3.68313    8.51323    2.76736
       O     2.97206    8.87438    2.20709
      H1     3.00226    9.86547    2.38517
       H    -0.73078    9.38866    2.95981
       O    -1.52819    9.94867    2.68625
      H1    -2.27222    9.41837    2.96212
       H    -0.80397   11.19836    0.94113
       O    -0.42902   11.50450    0.08094
      H1     0.06437   12.31274    0.27035
       H    -0.74004    9.35309    0.08217
       O    -0.85038    8.48763   -0.28661
      H1    -0.54099    8.58967   -1.21656
       H     2.34393   12.25754    2.61895
       O     2.94356   11.65941    2.12337
      H1     2.65707   11.70826    1.18839
       H     4.48232    5.69997   -1.28629
       O     5.26807    5.46035   -1.87127
      H1     5.77855    6.25542   -1.94146
       H     1.52879    8.43727    3.17551
       O     0.73115    8.53769    3.73524
      H1     0.58496    7.63106    3.99998
       H     4.12969    8.12866    4.68567
       O     4.69393    8.12652    3.89065
      H1     5.40075    7.44114    4.04742
       H     0.42125    9.64604   -3.09196
       O    -0.51715    9.35591   -3.16494
      H1    -1.01870   10.19667   -2.99430

