57
frame 5 | Written by MDAnalysis XYZWriter (release 2.4.3)
       H     5.81682  -19.05641  -15.99917
       O     4.86862  -19.11631  -15.91458
      H1     4.56616  -19.98992  -15.63244
       H     9.32237  -15.03450  -17.01502
       O    10.23509  -14.78941  -16.87732
      H1    10.69566  -14.93013  -17.78188
       H     5.81773  -16.36295  -16.60081
       O     5.75940  -15.79876  -15.79870
      H1     6.57830  -15.93329  -15.36081
       H     6.76700  -13.75246  -11.80329
       O     5.95361  -13.61429  -12.32015
      H1     5.70659  -12.66873  -12.20522
       H     4.02777  -17.00217  -18.19173
       O     4.90427  -17.41926  -18.00415
      H1     4.68950  -17.98265  -17.21222
       H     4.34887  -13.11593  -14.59128
       O     4.08698  -13.67589  -15.35837
      H1     4.54067  -14.52535  -15.18242
       H     1.96692  -15.79317  -14.72759
       O     2.53061  -16.11713  -15.44599
      H1     2.19492  -16.94938  -15.83180
       H     3.20048  -15.66622  -17.31099
       O     2.85623  -15.75358  -18.19014
      H1     3.36269  -15.07280  -18.69839
       H     2.42767  -13.94014  -16.18719
       O     1.59169  -13.56820  -16.59755
      H1     1.24686  -14.35343  -17.03366
       H     7.89113  -17.75473  -15.64259
       O     7.65285  -18.66505  -15.87440
      H1     7.99137  -18.73935  -16.81011
       H     4.30145  -18.25740  -14.15182
       O     3.74537  -17.69240  -13.62075
      H1     3.28504  -17.03231  -14.23531
       H     3.77366  -13.02694  -18.39479
       O     4.59402  -13.47963  -18.14704
      H1     4.59148  -13.56641  -17.20690
       H     4.49320  -16.35279  -12.53840
       O     4.64773  -15.86541  -11.74152
      H1     5.19604  -15.08344  -12.05979
       H    10.91584  -15.92549  -14.12960
       O    10.66071  -16.57520  -14.78931
      H1    10.56415  -15.95115  -15.47670
       H     7.11252  -11.33081  -18.10966
       O     6.91464  -11.98459  -18.82417
      H1     6.15370  -12.46828  -18.51817
       H     8.70202  -14.03796  -12.92065
       O     8.85480  -13.59292  -12.09227
      H1     9.17815  -14.27828  -11.45518
       H     7.75535  -19.06487  -12.86897
       O     7.14956  -18.37534  -12.44181
      H1     6.55771  -18.97198  -11.99327
       H     8.41193  -16.47402  -18.45720
       O     8.05423  -15.76706  -17.86178
      H1     7.44484  -15.25792  -18.43001
       H     8.98208  -16.34587  -14.13063
       O     8.09815  -16.01820  -14.01100
      H1     7.66565  -16.52635  -13.26345

