57
frame 6 | Written by MDAnalysis XYZWriter (release 2.4.3)
       H   -11.37299  -13.86530   13.20389
       O   -11.74543  -14.44415   12.55842
      H1   -12.69126  -14.32402   12.51386
       H   -11.80483   -7.95168   16.98574
       O   -12.72833   -8.14949   17.05842
      H1   -12.94744   -7.78359   17.92086
       H   -10.29138  -10.31867   16.74607
       O   -11.02052  -10.37764   17.40631
      H1   -11.28044   -9.49208   17.56664
       H    -9.53261  -11.69597   19.77792
       O   -10.47513  -11.70538   19.50417
      H1   -10.56820  -11.16016   18.73885
       H   -13.43300  -10.73377   15.19006
       O   -12.91624  -11.39216   15.72401
      H1   -12.32389  -10.92608   16.34185
       H   -16.34431  -13.99162   19.39283
       O   -16.69171  -13.59226   18.62501
      H1   -15.98342  -13.18947   18.09813
       H    -9.49990   -8.81021   15.95478
       O    -9.14060   -9.62522   15.69796
      H1    -8.95251   -9.56854   14.75830
       H   -15.00154  -12.42243   15.86961
       O   -15.89061  -12.54115   16.17544
      H1   -16.22117  -13.33991   15.70640
       H   -18.56717  -10.29336   14.81908
       O   -17.97424  -10.11668   15.60103
      H1   -17.11861   -9.81951   15.19332
       H   -11.56847  -12.02077   14.82212
       O   -10.86810  -12.25450   14.23949
      H1   -10.82895  -11.48721   13.72858
       H   -13.08356  -14.42291   18.35172
       O   -13.86557  -14.40549   17.77817
      H1   -13.96638  -15.29096   17.48295
       H   -15.35471  -12.48848   12.53143
       O   -15.25570  -11.71464   12.01153
      H1   -16.06794  -11.51324   11.49556
       H   -14.89892  -14.71723   13.23754
       O   -14.37989  -14.03254   13.66047
      H1   -14.68424  -14.14357   14.55931
       H   -13.27985   -8.46514   12.38367
       O   -13.82073   -7.90883   12.89996
      H1   -13.21181   -7.17625   13.09680
       H   -13.29852  -10.38155   11.71735
       O   -12.67924   -9.89140   11.12471
      H1   -13.08764   -9.63110   10.27639
       H   -10.05627  -13.38784   15.69033
       O    -9.67512  -13.43083   16.57905
      H1   -10.44187  -13.66754   17.19073
       H   -15.04479   -8.43034   18.16792
       O   -15.83035   -8.92688   17.90888
      H1   -15.59807   -9.72838   17.45194
       H   -13.56310   -6.64812   16.55138
       O   -14.08932   -5.84275   16.42027
      H1   -15.03470   -6.14475   16.28331
       H   -15.54870  -10.22931   13.46699
       O   -15.27975   -9.79065   14.27320
      H1   -14.93604   -9.00490   13.83305

