57
frame 5 | Written by MDAnalysis XYZWriter (release 2.4.3)
       H   -17.03827   17.69009    5.77177
       O   -17.22970   18.65586    5.90938
      H1   -17.28360   18.66265    6.90892
       H   -18.21987   19.80536    8.76591
       O   -17.43370   19.26315    8.51651
      H1   -17.57050   18.57911    9.13744
       H   -13.85322   17.79257    9.05040
       O   -13.68392   18.33440    9.84408
      H1   -13.03070   17.92294   10.41037
       H   -12.91876   19.50742    2.66851
       O   -13.63055   19.47539    3.32405
      H1   -14.06556   18.65355    3.15070
       H   -17.61510   16.52534    9.86335
       O   -18.32485   17.16636   10.03812
      H1   -18.91182   16.93425    9.32763
       H   -15.65296   16.34392    6.34077
       O   -16.38588   16.26161    5.73109
      H1   -16.10401   16.40619    4.79341
       H   -11.87086   19.21010    6.57147
       O   -12.28788   19.86629    5.97803
      H1   -12.61086   19.44430    5.17336
       H   -13.54154   15.71812    7.55010
       O   -14.25154   16.30710    7.75023
      H1   -14.88042   15.92038    8.35606
       H   -16.76422   17.59808    2.86038
       O   -15.82612   17.38651    2.96807
      H1   -15.68037   16.62543    2.36185
       H   -19.03289   13.81892    9.20306
       O   -18.84320   13.60996    8.25266
      H1   -19.18307   14.27926    7.68678
       H   -11.39307   17.44231    7.48863
       O   -10.86481   18.22593    7.62788
      H1   -10.73566   18.28891    8.62577
       H   -14.39541   15.14515   11.70039
       O   -15.36170   15.29435   11.86125
      H1   -15.47645   16.14068   12.38795
       H   -17.99162   15.09570   13.64088
       O   -18.54082   15.52786   12.96065
      H1   -18.68076   16.52525   13.02277
       H   -16.27827   13.67275    5.79307
       O   -15.42151   13.48407    6.19975
      H1   -15.28527   12.56502    6.02908
       H   -16.27986   14.58725    9.08835
       O   -16.27502   15.49575    9.34717
      H1   -15.94379   15.63497   10.26095
       H   -18.29440   15.81746    6.06961
       O   -19.20151   15.52692    6.09114
      H1   -19.58102   15.94868    6.85662
       H   -18.73152   18.04759   11.77456
       O   -18.72001   18.13227   12.77503
      H1   -17.86350   18.52719   13.07732
       H   -19.55799   13.19368   11.19934
       O   -19.56023   13.97994   10.65400
      H1   -18.99557   14.61254   11.16043
       H   -17.26655   13.27925    8.49698
       O   -16.39802   12.87757    8.61154
      H1   -15.97451   13.17714    7.74728

