57
frame 6 | Written by MDAnalysis XYZWriter (release 2.4.3)
       H    -1.88040  -18.09283   17.36665
       O    -1.46928  -18.89869   16.99314
      H1    -0.62683  -18.96186   17.46328
       H    -5.57643  -17.33996   13.23184
       O    -4.87345  -16.74284   12.89349
      H1    -4.06142  -17.01197   13.33447
       H     0.43301  -12.07569   11.97561
       O     0.92579  -12.77457   11.56374
      H1     0.91308  -12.63435   10.59471
       H    -2.72003  -14.51632   15.17109
       O    -3.24909  -14.89715   15.93576
      H1    -4.17769  -14.70258   15.78562
       H    -1.69848  -16.29003   18.69357
       O    -2.52369  -16.52859   18.22816
      H1    -2.58091  -15.80975   17.53838
       H    -2.92193  -10.95463   14.27760
       O    -2.71949  -11.12292   15.22037
      H1    -1.94576  -11.70774   15.16321
       H    -0.84193  -10.53104   13.08581
       O    -0.30031  -11.24372   13.43409
      H1     0.01134  -10.92348   14.29096
       H     0.47555  -16.17910   19.82556
       O    -0.09049  -15.82703   19.15292
      H1     0.36525  -16.27913   18.42087
       H     2.72140  -17.93925   12.39362
       O     3.66056  -17.97589   12.26475
      H1     3.86271  -17.48630   11.48279
       H    -1.54017  -13.26225   13.56109
       O    -1.93409  -14.15979   13.61235
      H1    -1.85558  -14.60515   12.75646
       H     0.78408  -14.79459   15.41595
       O     0.20404  -15.50893   15.07618
      H1    -0.49812  -15.01755   14.54989
       H     1.64629  -17.69465   17.27881
       O     1.57254  -16.78034   17.20984
      H1     0.92211  -16.68828   16.50442
       H     2.50003  -13.87897   16.87380
       O     1.77505  -13.26665   16.60332
      H1     2.21670  -12.39847   16.42378
       H     3.20630  -15.74486   17.08302
       O     3.88630  -15.16361   16.75764
      H1     4.01806  -15.38152   15.82190
       H    -3.11174  -16.81210   15.13349
       O    -2.80922  -17.47476   14.46041
      H1    -1.85968  -17.44629   14.46060
       H     2.64622  -13.00346   12.00772
       O     3.62568  -13.06221   11.95544
      H1     3.86240  -13.42598   11.09448
       H     4.79777  -15.09478   14.03543
       O     4.64230  -16.01517   14.19971
      H1     4.06176  -16.24568   13.44107
       H     1.13976  -15.52333    9.96591
       O     0.31040  -15.18957   10.39571
      H1     0.62329  -14.40309   10.89062
       H     1.08655  -12.59551   17.92617
       O     0.75371  -11.92301   18.52145
      H1     1.48280  -11.75690   19.14602

