57
frame 5 | Written by MDAnalysis XYZWriter (release 2.4.3)
       H    -4.67474  -16.46298   10.41023
       O    -4.82800  -16.37787    9.42814
      H1    -4.45210  -17.26004    9.06104
       H    -5.92258  -17.50019   12.68083
       O    -5.18441  -16.89800   12.50679
      H1    -4.42201  -17.19111   13.03578
       H    -6.03615  -16.86122   17.29486
       O    -5.54872  -17.51443   16.83699
      H1    -6.10608  -17.77700   16.10835
       H    -8.38747  -14.08805   15.93685
       O    -8.47618  -15.01859   16.01588
      H1    -7.91662  -15.26316   15.24204
       H    -8.69648  -12.58986   12.06627
       O    -7.96536  -13.11891   12.25317
      H1    -7.44071  -13.10056   11.41029
       H    -6.06058  -19.48381   14.68279
       O    -6.74722  -18.77297   14.58416
      H1    -7.51108  -19.18994   14.18420
       H    -7.16474  -14.37142   12.89475
       O    -6.78344  -15.12220   13.50114
      H1    -6.21391  -15.71286   13.02065
       H    -3.14265  -15.50973   15.61886
       O    -3.11104  -16.29266   16.13026
      H1    -3.98229  -16.54948   16.43060
       H    -3.92483  -14.96871    9.91431
       O    -3.43836  -14.19417   10.21334
      H1    -2.49835  -14.64645   10.15532
       H    -8.67155  -17.48340   16.86784
       O    -8.98091  -18.30117   16.50516
      H1    -8.56801  -18.43659   15.64070
       H    -3.94025  -13.67649   11.90790
       O    -4.38273  -13.62669   12.77885
      H1    -5.11183  -14.25106   12.75548
       H    -7.27247  -18.53879    9.94028
       O    -8.15680  -18.33475    9.58861
      H1    -7.86775  -18.25223    8.64230
       H    -3.64480  -18.76206    7.50766
       O    -3.48083  -18.62211    8.46065
      H1    -2.57126  -18.39849    8.57852
       H    -5.44300  -11.72234   12.98248
       O    -5.62140  -10.76925   12.99195
      H1    -6.00343  -10.59622   13.90587
       H    -3.12036  -14.63371   13.17872
       O    -2.30400  -15.12508   13.14286
      H1    -2.36179  -15.43593   12.23226
       H    -7.88940  -15.29181    8.08826
       O    -6.96871  -15.41252    7.68692
      H1    -6.42869  -15.82460    8.36289
       H    -2.70897  -17.38097   14.68043
       O    -3.01728  -18.12625   14.13627
      H1    -2.23470  -18.63002   13.91995
       H     0.25878  -18.90553   13.95633
       O    -0.57563  -19.37348   14.02974
      H1    -0.65389  -19.52845   15.03045
       H     0.03807  -15.10405   10.20716
       O    -0.83816  -14.92398   10.52103
      H1    -0.63938  -14.16527   11.10608

