57
frame 6 | Written by MDAnalysis XYZWriter (release 2.4.3)
       H    -6.56949   -7.31074   10.15191
       O    -7.46536   -7.49959    9.79371
      H1    -7.47304   -8.46932    9.76811
       H    -9.49990   -8.81021   15.95478
       O    -9.14060   -9.62522   15.69796
      H1    -8.95251   -9.56854   14.75830
       H    -8.15149  -14.28064   16.13225
       O    -7.53757  -14.97762   15.83703
      H1    -7.03836  -14.59737   15.14037
       H    -8.66842  -10.80933    9.39620
       O    -7.74066  -10.60626    9.53443
      H1    -7.27139  -11.26153    8.94682
       H    -7.59348  -13.17748   11.21481
       O    -6.71528  -13.54052   11.22983
      H1    -6.36593  -13.17819   10.44277
       H    -6.25717  -14.15576   12.90351
       O    -5.73353  -14.36882   13.67636
      H1    -5.22223  -15.25163   13.49694
       H    -2.26226   -9.35146   12.10893
       O    -1.41832   -9.70353   11.69063
      H1    -1.18829   -9.37189   10.81418
       H    -6.42682   -7.87018   15.30025
       O    -6.33819   -7.17074   14.62482
      H1    -6.89718   -7.46214   13.88212
       H    -2.92193  -10.95463   14.27760
       O    -2.71949  -11.12292   15.22037
      H1    -1.94576  -11.70774   15.16321
       H    -5.18872  -12.02357   17.12778
       O    -4.76995  -11.12643   17.06965
      H1    -4.07025  -11.22971   16.38895
       H    -4.39028   -7.41684   11.27491
       O    -4.86894   -6.88951   10.65862
      H1    -4.53136   -7.12000    9.77365
       H    -3.84353  -11.31521   11.73536
       O    -3.28760  -11.81023   12.37176
      H1    -3.08256  -12.68416   11.97033
       H    -0.84193  -10.53104   13.08581
       O    -0.30031  -11.24372   13.43409
      H1     0.01134  -10.92348   14.29096
       H    -5.25354  -11.04546   13.61561
       O    -5.52401  -10.14721   13.74051
      H1    -5.83718  -10.10115   14.61705
       H    -6.13337   -9.84774   16.59695
       O    -6.69855   -9.06917   16.53586
      H1    -7.57148   -9.43254   16.34704
       H    -4.38064   -8.80206   13.09368
       O    -3.73200   -8.20173   12.73242
      H1    -3.55997   -7.52131   13.38323
       H    -9.22616   -8.32599   12.77865
       O    -9.35348   -9.26467   13.03553
      H1    -9.69367   -9.67906   12.18195
       H    -3.25007  -10.57450    9.95516
       O    -4.10157  -10.62340    9.61329
      H1    -4.13277   -9.70876    9.21569
       H    -4.82489   -6.18759   14.11692
       O    -3.93574   -5.83907   14.03914
      H1    -3.73692   -5.50090   14.91441

