57
frame 6 | Written by MDAnalysis XYZWriter (release 2.4.3)
       H   -18.21185    0.54103   -8.72243
       O   -17.93390    1.39755   -8.32808
      H1   -17.42460    1.20603   -7.54224
       H   -17.85259   -2.88230  -12.18687
       O   -17.69136   -2.20719  -12.88908
      H1   -17.35652   -2.62533  -13.68529
       H   -18.32573    0.20847  -14.70292
       O   -18.16660    0.85232  -14.00659
      H1   -17.35699    1.40323  -14.26385
       H   -16.48179    0.31724  -12.60094
       O   -15.59411    0.70616  -12.64942
      H1   -15.30668    0.46677  -13.51945
       H   -16.95440    4.37379   -9.67725
       O   -16.64688    3.46066   -9.74638
      H1   -17.11239    2.89906   -9.07157
       H   -13.72768   -0.01474  -15.94831
       O   -14.63603    0.06781  -16.22361
      H1   -14.86956    0.90538  -15.77314
       H   -15.99328   -2.52513  -12.54101
       O   -15.10946   -2.85036  -12.26860
      H1   -15.15726   -3.85198  -12.16827
       H   -18.79338   -0.68027  -16.56345
       O   -19.19627   -1.37185  -16.05543
      H1   -18.67895   -2.18282  -16.25722
       H   -14.70571   -0.91952   -9.34681
       O   -14.78583   -1.84975   -9.64334
      H1   -14.81084   -1.87926  -10.62841
       H   -17.92945    1.75168  -16.88967
       O   -18.28818    0.87412  -17.13901
      H1   -18.13471    0.78650  -18.11666
       H   -14.83783    1.89202  -11.39516
       O   -14.37675    2.36188  -10.64057
      H1   -15.02288    2.81483  -10.05589
       H   -16.20383   -0.54375  -19.14690
       O   -15.26842   -0.62786  -18.96364
      H1   -15.32015   -0.53578  -18.02644
       H   -17.41461    3.58351  -11.29449
       O   -17.78700    3.73505  -12.22913
      H1   -18.63054    3.18458  -12.32635
       H   -20.13691    5.88895  -13.73553
       O   -19.55706    5.80894  -12.97958
      H1   -18.93470    5.10955  -13.05431
       H   -15.18247    4.78020  -13.07435
       O   -14.37757    4.22173  -13.13370
      H1   -14.59979    3.57420  -12.47752
       H   -16.66032   -3.89461  -15.60672
       O   -16.66125   -2.97841  -15.96706
      H1   -16.14887   -3.13140  -16.78286
       H   -14.83524   -3.11538  -15.97197
       O   -13.91986   -3.36328  -15.67678
      H1   -13.82686   -3.02527  -14.76629
       H   -17.82887    3.87271  -15.63524
       O   -17.77798    3.51968  -16.52617
      H1   -17.31399    4.31948  -17.01231
       H   -15.50992    3.10397  -15.92275
       O   -15.47085    2.45450  -15.20091
      H1   -14.97958    2.97913  -14.52398

