57
frame 6 | Written by MDAnalysis XYZWriter (release 2.4.3)
       H    17.95361   15.23725    2.17351
       O    17.41682   15.62868    1.51463
      H1    16.96350   14.93601    0.99270
       H     9.83925   16.51485    1.94217
       O     9.61575   17.15331    2.64426
      H1     8.79271   16.86283    3.06624
       H    14.36139   16.38394    2.69728
       O    14.66118   15.52695    2.31398
      H1    15.61831   15.58748    2.37019
       H    14.08729   18.41109   -0.38390
       O    14.84902   18.62882   -0.95856
      H1    14.86288   18.02049   -1.64083
       H    13.27994   18.10927    4.12879
       O    14.17198   18.06423    3.65199
      H1    14.74653   18.73615    4.10508
       H    11.60065   18.38611   -2.38380
       O    11.99227   19.19812   -2.76510
      H1    12.86193   19.19698   -2.35440
       H    14.26696   17.79824    6.59517
       O    14.89306   17.17661    6.91528
      H1    15.78424   17.62381    6.77635
       H    13.27709   15.81650    0.83087
       O    12.34731   16.11597    0.64979
      H1    12.30226   17.06425    0.74496
       H    10.62540   14.51371    5.15974
       O    11.01598   13.66711    4.90209
      H1    11.72756   14.03529    4.33245
       H    12.26430   15.13938   -0.92557
       O    12.36699   14.34713   -1.49508
      H1    11.63124   14.45935   -2.07945
       H    17.79935   17.46371    3.16533
       O    17.47447   18.14707    3.72347
      H1    16.51229   18.18376    3.40458
       H    10.28884   16.18446   -2.34766
       O    10.38986   17.08249   -2.02783
      H1     9.55937   17.16533   -1.50643
       H    11.71106   19.18924    1.08536
       O    12.56049   18.76029    0.90119
      H1    13.11450   18.91095    1.60807
       H    11.49022   18.14368    5.14842
       O    11.33724   18.57239    4.31618
      H1    10.85593   17.92951    3.76516
       H    11.82024   17.21833    7.86338
       O    11.92582   17.10220    6.88939
      H1    11.45123   16.26453    6.74191
       H    10.78296   15.24943    0.73764
       O     9.86258   14.97738    0.88808
      H1     9.80751   14.15920    1.41746
       H    16.83412   18.85600   -0.70959
       O    17.75140   19.13194   -0.79447
      H1    17.93827   19.27896   -1.72210
       H    13.41809   13.86203    2.64654
       O    12.89264   13.10296    2.34014
      H1    13.21823   12.30206    2.78676
       H    15.22508   18.40747   -4.11746
       O    15.85523   18.01029   -3.50704
      H1    15.90337   17.11020   -3.88535

