57
frame 6 | Written by MDAnalysis XYZWriter (release 2.4.3)
       H    17.06875   15.04224   -4.42627
       O    16.30429   15.56046   -4.69255
      H1    15.86617   14.92717   -5.26179
       H    17.82185   15.70237   -7.41261
       O    17.47775   16.54660   -7.14730
      H1    17.07236   16.49031   -6.30110
       H    17.77475   16.80527  -13.27064
       O    18.25288   16.97626  -12.42227
      H1    18.65109   16.12801  -12.13896
       H    13.38536   12.81420   -4.69587
       O    13.72251   13.72754   -4.70526
      H1    12.91484   14.10579   -4.29082
       H    15.99922   12.46968  -12.04220
       O    16.93925   12.21270  -12.11876
      H1    17.36065   12.58846  -11.30874
       H    15.93343   14.62622   -8.92430
       O    16.35904   13.88226   -8.46160
      H1    16.93348   13.54199   -9.16019
       H    11.79478   17.54137   -9.95112
       O    12.28685   16.76283   -9.69184
      H1    12.43916   16.01071  -10.32811
       H    11.17555   18.51741   -6.80327
       O    11.43782   18.42488   -7.70627
      H1    11.87844   17.56454   -7.64269
       H    17.03412   18.10649  -11.64553
       O    16.54788   18.97500  -11.44998
      H1    15.57167   18.86061  -11.61994
       H    17.75405   11.59771   -5.69986
       O    17.54592   10.90348   -6.30847
      H1    16.59727   10.76004   -6.16727
       H    17.67123   19.39811   -9.53545
       O    18.09944   19.33937   -8.70414
      H1    18.18239   18.41832   -8.57387
       H    18.64403   11.85222   -9.67523
       O    18.42141   12.76653   -9.94350
      H1    19.25493   13.26184  -10.19753
       H    14.47826   16.74674   -9.29710
       O    15.22979   16.15507   -9.24445
      H1    15.82291   16.54230   -8.60535
       H    14.04130   13.99010   -6.58572
       O    13.70358   13.90240   -7.48413
      H1    14.54409   13.84204   -7.99999
       H    13.55000   19.45612   -5.94972
       O    14.14900   18.78571   -5.65161
      H1    13.90559   17.93235   -6.07302
       H    17.63283   18.64535   -3.89369
       O    18.57706   18.88918   -3.87656
      H1    18.62770   19.32877   -4.74695
       H    15.22508   18.40747   -4.11746
       O    15.85523   18.01029   -3.50704
      H1    15.90337   17.11020   -3.88535
       H    19.51099   13.43049   -4.17313
       O    18.96680   14.13488   -3.89560
      H1    19.55393   14.90936   -3.88353
       H    13.27596   15.39037   -7.06521
       O    13.13566   16.30592   -6.76077
      H1    12.47750   16.22787   -6.05190

