57
frame 7 | Written by MDAnalysis XYZWriter (release 2.4.3)
       H   -16.35203    1.05594    6.04378
       O   -15.97314    0.64840    5.22757
      H1   -16.43883    1.11642    4.51049
       H   -14.20653    2.88877    9.66855
       O   -13.23517    3.03938    9.79072
      H1   -12.92330    2.12372   10.06868
       H   -10.35527    4.89942    7.36800
       O   -10.32947    3.97244    7.62429
      H1    -9.42471    3.96953    8.07857
       H    -9.73509    0.75791    3.42031
       O    -9.66520    1.37502    2.64670
      H1    -9.04176    1.07215    1.97232
       H   -13.20619   -1.18067    2.41971
       O   -12.86968   -1.63947    1.63273
      H1   -13.60674   -1.92560    1.04887
       H   -10.75474   -1.02852    4.40163
       O    -9.95617   -0.52812    4.54171
      H1   -10.17210   -0.08539    5.35984
       H   -14.11421   -1.74673    4.49188
       O   -13.77549   -0.87427    4.17931
      H1   -14.45914   -0.18582    4.42865
       H   -10.58169   -3.73606    7.16159
       O   -11.03709   -3.04641    6.67925
      H1   -10.30436   -2.46187    6.39508
       H   -12.56650    0.22467   11.31522
       O   -12.24682   -0.09805   10.49305
      H1   -12.97849   -0.56176   10.05921
       H   -12.97631   -3.57388    4.25798
       O   -13.78808   -3.47054    4.76637
      H1   -13.76485   -4.09975    5.48601
       H    -9.95534    2.56860    6.47551
       O    -9.98351    1.59382    6.31229
      H1   -10.89292    1.39114    6.37785
       H   -12.14556   -0.56054    7.06444
       O   -12.39116    0.00108    6.30567
      H1   -12.99122   -0.41705    5.61809
       H   -14.88370   -1.93825    8.65617
       O   -14.81988   -1.34470    9.41052
      H1   -15.06954   -1.88313   10.12889
       H   -16.58706   -1.12522    5.66908
       O   -17.00825   -1.84907    6.16171
      H1   -17.50793   -2.38499    5.52825
       H   -12.43638    0.17771    1.46474
       O   -12.56975    1.13312    1.59736
      H1   -11.71524    1.40145    2.01197
       H    -8.92380   -0.04669    7.51245
       O    -8.45910   -0.81696    7.12771
      H1    -7.93526   -1.26025    7.83953
       H   -10.86272    0.29345    9.37010
       O   -10.05476    0.59865    8.93409
      H1    -9.59910    1.31507    9.46232
       H   -15.86326   -2.95808    7.15516
       O   -15.52835   -3.47900    7.86920
      H1   -16.25571   -3.74295    8.41691
       H   -11.61785   -3.36949    9.72197
       O   -12.12917   -4.08662    9.26259
      H1   -12.09608   -3.89021    8.32930

