57
frame 6 | Written by MDAnalysis XYZWriter (release 2.4.3)
       H    10.62519    8.59189   17.58669
       O     9.69493    8.28420   17.61261
      H1     9.27675    8.74466   18.33544
       H    11.37739   14.19200   18.15880
       O    10.49249   14.20068   18.46911
      H1    10.56038   14.06945   19.39054
       H    12.43752   13.90458   16.28265
       O    12.93631   14.25671   17.08867
      H1    13.30626   13.44745   17.49626
       H     7.85725   13.05221   17.62742
       O     8.29665   12.19542   17.47992
      H1     9.21684   12.49233   17.74398
       H    14.36893   17.33438   19.72362
       O    13.66892   16.65594   19.51073
      H1    13.15326   17.02322   18.82702
       H    10.56766   14.08349   15.07708
       O    11.08845   13.26967   15.32349
      H1    11.76955   13.20071   14.61883
       H    14.93491   14.47829   17.92257
       O    15.44102   15.22558   18.04654
      H1    14.86573   15.73789   18.64606
       H    12.40924   19.21021   17.44779
       O    12.44950   18.44308   17.99370
      H1    11.50249   18.06302   17.97703
       H     9.17482   12.75330   15.05083
       O     8.44292   12.99235   14.53452
      H1     7.63647   12.65353   14.95438
       H    14.17909   11.27859   15.53902
       O    13.61417   10.47664   15.58050
      H1    13.45608   10.30581   14.65594
       H     8.32037   14.63315   18.98618
       O     7.47071   14.93367   19.32745
      H1     7.15170   14.18463   19.86753
       H    14.03012   12.22184   19.65170
       O    14.26155   12.36145   18.70421
      H1    15.17423   12.01472   18.71703
       H     7.50035   17.91539   19.47078
       O     6.76639   17.55279   18.91198
      H1     6.86932   16.57189   18.96012
       H     7.79745   17.24244   16.11713
       O     8.09928   18.05779   16.41836
      H1     7.61932   18.13775   17.29110
       H    10.42546   16.04987   18.25088
       O    10.09263   16.96928   18.21902
      H1     9.72639   17.07970   17.30082
       H    13.78191   16.03475   15.80197
       O    13.72046   16.99508   15.75076
      H1    13.38363   17.28231   16.59625
       H     7.00133    9.31395   19.00119
       O     6.73759   10.01823   18.38414
      H1     7.46672   10.61616   18.25583
       H     9.05225   15.91048   14.65155
       O     9.95713   15.76895   14.89196
      H1    10.42005   16.44728   14.42579
       H    12.70495    9.58546   17.34297
       O    12.13649    9.29842   18.04773
      H1    12.63668    8.53384   18.35377

