57
frame 7 | Written by MDAnalysis XYZWriter (release 2.4.3)
       H     6.19980  -18.21103   15.26235
       O     6.47888  -17.48520   14.72078
      H1     5.73401  -16.93488   14.72335
       H    -1.42078  -18.34745   17.59966
       O    -0.96744  -19.18640   17.30878
      H1    -0.08185  -19.18202   17.79599
       H    -3.28087  -14.11691   16.47552
       O    -3.06270  -15.08094   16.48359
      H1    -3.85739  -15.48678   16.92467
       H    -1.79277  -16.28589   19.01800
       O    -2.45920  -16.77989   18.57169
      H1    -2.64944  -16.14213   17.77058
       H    -1.15526  -13.80180   19.84703
       O    -1.36377  -12.84643   19.54730
      H1    -0.68298  -12.50197   18.88210
       H     3.53143  -19.81789   16.07544
       O     4.22939  -19.25083   15.73860
      H1     4.67169  -18.94921   16.55830
       H     2.83689  -17.94425   12.58424
       O     3.20917  -17.14084   12.16890
      H1     2.77714  -16.89401   11.29706
       H     5.64391  -17.28576   18.50783
       O     5.53150  -18.20093   18.10246
      H1     4.97495  -18.59944   18.76292
       H    -0.59056  -14.04696   12.83673
       O    -0.80095  -14.50488   13.67958
      H1    -1.73661  -14.73242   13.69349
       H     1.56977  -15.07078   15.43913
       O     0.85679  -15.71983   15.43244
      H1     0.17909  -15.31197   14.91405
       H     1.13577  -17.45332   18.07444
       O     1.21971  -16.45200   17.94736
      H1     0.99122  -16.18727   17.03575
       H     3.04363  -13.79401   16.56064
       O     2.54291  -13.04159   16.23163
      H1     3.21554  -12.29131   16.31543
       H     6.49621  -13.43828   16.84735
       O     6.53365  -14.23680   17.42138
      H1     5.67776  -14.64887   17.39803
       H     3.17444  -16.03018   17.68755
       O     3.87045  -15.53244   17.27488
      H1     3.84006  -15.73018   16.34163
       H    -3.19678  -16.38199   15.22870
       O    -3.20574  -17.00846   14.48060
      H1    -2.29442  -17.37895   14.50168
       H     1.82405  -19.32603   19.49540
       O     1.26948  -19.22712   18.67907
      H1     1.83264  -19.63242   17.95779
       H     0.10472  -18.45967   14.07638
       O    -0.73302  -18.53793   14.51380
      H1    -0.48707  -18.92905   15.36578
       H     4.91598  -15.28146   13.84051
       O     4.43834  -15.83682   14.45585
      H1     3.67024  -16.13275   13.98316
       H     1.35134  -12.25503   17.37173
       O     0.61826  -11.89737   17.96161
      H1     0.99702  -11.89622   18.85561

