57
frame 6 | Written by MDAnalysis XYZWriter (release 2.4.3)
       H    18.75410   18.32856  -17.65362
       O    19.37324   18.08499  -18.31972
      H1    18.95380   18.38680  -19.14205
       H    16.77833   13.35862  -16.56089
       O    16.90544   13.01226  -15.65554
      H1    16.90572   13.81207  -15.03528
       H    17.77475   16.80527  -13.27064
       O    18.25288   16.97626  -12.42227
      H1    18.65109   16.12801  -12.13896
       H    14.05388   12.08724  -11.66386
       O    14.31128   12.67661  -12.38024
      H1    13.80982   13.50311  -12.10801
       H    15.99922   12.46968  -12.04220
       O    16.93925   12.21270  -12.11876
      H1    17.36065   12.58846  -11.30874
       H    15.93343   14.62622   -8.92430
       O    16.35904   13.88226   -8.46160
      H1    16.93348   13.54199   -9.16019
       H    17.68565   15.55422  -15.35385
       O    17.36921   16.31315  -14.79585
      H1    16.41729   16.27205  -14.66775
       H    18.42446   12.18524  -15.27516
       O    19.26744   12.15406  -14.86530
      H1    19.44430   11.29849  -14.46811
       H    17.03412   18.10649  -11.64553
       O    16.54788   18.97500  -11.44998
      H1    15.57167   18.86061  -11.61994
       H    17.43246   10.50075  -17.94703
       O    16.58222   10.91089  -18.11753
      H1    16.66495   11.87265  -18.12864
       H    15.43519   18.85031  -16.33380
       O    14.47814   18.92586  -16.26439
      H1    14.16388   19.16495  -17.15109
       H    14.50005   11.46744  -15.29449
       O    14.00168   12.19067  -14.91836
      H1    14.53020   12.41339  -14.06204
       H    18.64403   11.85222   -9.67523
       O    18.42141   12.76653   -9.94350
      H1    19.25493   13.26184  -10.19753
       H    17.78206   17.80336  -15.77159
       O    17.96060   18.62288  -16.23118
      H1    18.44566   19.23024  -15.64602
       H    16.31358    9.99888   -9.81697
       O    17.11386   10.12460  -10.33486
      H1    16.90931   10.72061  -11.01839
       H    19.85862   15.05765  -14.11842
       O    19.30754   14.60435  -13.49252
      H1    19.31129   13.67435  -13.77005
       H    14.42784   17.20345  -15.73031
       O    14.61666   16.40807  -15.14996
      H1    14.35016   15.66943  -15.66454
       H    17.25043    9.90483  -13.90649
       O    17.45036    9.75359  -14.81999
      H1    16.52570    9.77420  -15.18656
       H    16.04371   14.23813  -18.66732
       O    16.65101   13.70821  -18.14177
      H1    17.49936   14.08092  -18.38901

