57
frame 7 | Written by MDAnalysis XYZWriter (release 2.4.3)
       H   -10.49784    9.25895  -12.02893
       O   -10.10930    8.83162  -12.76499
      H1   -10.19301    7.87245  -12.57757
       H    -7.62536   11.65614  -12.71358
       O    -7.71728   12.60386  -12.79470
      H1    -7.99632   12.98220  -11.90344
       H    -9.44819    8.92807  -16.80850
       O    -8.91242    9.70000  -16.68504
      H1    -8.50200   10.01433  -17.53544
       H    -9.59472   11.58343   -8.42807
       O    -9.83344   10.66242   -8.47970
      H1   -10.08697   10.42868   -7.57946
       H    -3.44760    7.65181  -10.75568
       O    -4.03827    6.98291  -11.07944
      H1    -4.33451    7.27676  -11.92729
       H    -6.53114   12.16900  -15.99145
       O    -5.86067   11.50309  -15.71313
      H1    -6.22357   10.59662  -15.59959
       H    -6.17970    7.27910  -14.27699
       O    -5.86459    6.74166  -13.55258
      H1    -5.08144    6.32296  -14.00204
       H   -10.54373    9.50284   -9.46800
       O   -10.87368    8.65782   -9.93404
      H1   -11.81086    8.91090  -10.14944
       H   -11.07276    5.58999  -12.82522
       O   -10.43508    6.17140  -13.25791
      H1    -9.62257    5.68487  -13.34268
       H    -6.21648   10.85004   -8.97546
       O    -5.50028   11.38942   -8.43667
      H1    -5.44037   12.21994   -8.92229
       H    -7.37850    9.88014  -11.76437
       O    -7.60455    9.77949  -12.68905
      H1    -8.53506    9.41268  -12.76291
       H   -10.98259    9.87674  -14.26854
       O   -11.33533   10.29599  -15.10113
      H1   -10.60609   10.16569  -15.71772
       H    -6.73669    9.22818  -14.29301
       O    -6.64455    9.00786  -15.23365
      H1    -7.58182    9.03812  -15.58350
       H    -5.48470    7.33405   -9.69747
       O    -5.95947    7.71658   -8.93379
      H1    -5.25651    8.21493   -8.43036
       H    -7.37175    8.94392   -9.90444
       O    -7.51564    9.92605   -9.94286
      H1    -8.33704   10.08671   -9.41778
       H    -3.14715    8.79202  -13.56981
       O    -3.92069    9.13440  -14.01627
      H1    -4.38088    8.33597  -14.31814
       H   -12.67920    7.37457  -14.84635
       O   -12.31081    6.55766  -15.30067
      H1   -11.66445    6.31562  -14.62910
       H    -9.14694   12.80329  -14.29788
       O   -10.01864   12.73387  -14.70868
      H1   -10.42908   11.83951  -14.66628
       H    -7.71861    4.87957  -14.62546
       O    -7.94677    5.07135  -13.71368
      H1    -7.20448    5.69239  -13.41495

