57
frame 6 | Written by MDAnalysis XYZWriter (release 2.4.3)
       H     0.68227  -18.32752  -16.59072
       O     1.45100  -18.79819  -16.82632
      H1     1.91234  -18.89681  -15.96592
       H     9.46335  -16.41236  -18.38989
       O    10.25836  -15.79073  -18.43862
      H1    11.06173  -16.36287  -18.59421
       H     5.44330  -15.55102  -17.07976
       O     5.76814  -14.80160  -16.55589
      H1     6.70554  -14.69332  -16.60689
       H     3.44704  -17.11851  -17.98797
       O     4.44391  -17.25665  -17.82816
      H1     4.45953  -17.99272  -17.22083
       H     5.14558  -11.62029  -14.62042
       O     5.18106  -11.69533  -15.54103
      H1     5.49137  -12.56068  -15.73301
       H     9.46585  -14.15853  -18.90736
       O     9.30028  -13.22599  -18.98387
      H1     8.41607  -13.01956  -18.69446
       H    -1.11366  -13.87301  -19.17812
       O    -1.43336  -12.91121  -19.15975
      H1    -0.95858  -12.42028  -19.87980
       H     3.80271  -10.08157  -15.75004
       O     3.24132   -9.28550  -15.69491
      H1     3.71943   -8.81944  -15.01983
       H     1.52749  -15.40064  -14.94908
       O     2.11634  -15.24290  -15.68873
      H1     2.92479  -15.66676  -15.31309
       H     1.86251  -15.93606  -17.33323
       O     2.07054  -16.08400  -18.27990
      H1     2.58610  -15.31124  -18.54727
       H     1.20610  -13.49181  -16.19026
       O     1.11962  -12.54991  -16.28675
      H1     0.23085  -12.42917  -16.55010
       H     4.32617  -17.30084  -15.30239
       O     4.36334  -16.50941  -14.75565
      H1     5.07554  -15.84976  -15.07639
       H     4.99103   -8.55530  -17.68097
       O     5.11073   -8.80525  -18.62551
      H1     5.89521   -9.36846  -18.64408
       H     3.67837  -13.08445  -18.42837
       O     4.24102  -13.83610  -18.63913
      H1     4.54949  -13.98748  -17.73158
       H     1.88416  -11.63548  -17.79259
       O     2.36678  -11.66578  -18.61143
      H1     2.37037  -10.75808  -18.95723
       H     7.24151   -9.15036  -16.42687
       O     7.75651   -9.83193  -16.92659
      H1     8.29629   -9.29094  -17.57013
       H     6.68355  -11.31215  -18.01095
       O     6.59304  -12.02242  -18.61088
      H1     5.74379  -12.42908  -18.46695
       H     1.17226  -12.62815  -14.39524
       O     0.97612  -12.79025  -13.45042
      H1     0.12392  -12.26274  -13.34475
       H     8.36519  -17.78850  -19.06658
       O     7.86468  -17.20684  -18.45314
      H1     7.23005  -16.77163  -19.06700

