57
frame 7 | Written by MDAnalysis XYZWriter (release 2.4.3)
       H   -11.27210   10.03551    3.59003
       O   -12.20783   10.38415    3.64574
      H1   -12.31151   10.99331    2.83990
       H    -8.51068    8.30497    7.24000
       O    -7.72262    7.76110    7.18676
      H1    -7.94743    7.07049    7.77341
       H    -6.75641   13.54229    7.56407
       O    -6.54055   14.15576    8.28954
      H1    -7.25220   14.80030    8.19812
       H    -8.51814   10.27293    0.76448
       O    -8.14382   11.18791    0.87095
      H1    -8.43215   11.82153    0.14324
       H   -11.16861    9.42225    7.07191
       O   -10.31459    8.95441    6.89761
      H1   -10.33572    8.88704    5.92244
       H    -7.61143    8.20395    1.34784
       O    -8.22227    8.09517    0.56372
      H1    -7.65086    7.89461   -0.17308
       H    -8.37743   12.28118    3.34731
       O    -8.02763   11.46788    3.64175
      H1    -8.04300   10.97257    2.81550
       H   -10.11431   15.51832    3.69382
       O   -10.70049   16.20760    3.99020
      H1   -11.38924   15.78079    4.52545
       H    -4.38898    9.09195    1.09793
       O    -4.43777    9.34201    1.99506
      H1    -4.75120   10.25975    1.88479
       H    -6.78058    8.13503    3.97548
       O    -6.85124    8.49795    3.11072
      H1    -6.01055    8.98577    2.92092
       H    -4.84909   14.08349    1.99752
       O    -4.17460   14.67897    1.63723
      H1    -4.41619   15.55795    1.92078
       H    -4.80750   11.76824    3.38177
       O    -5.33041   11.96731    2.61162
      H1    -6.25604   11.98761    2.92250
       H    -6.61230   10.56754   -0.31563
       O    -5.79404   10.71863   -0.71934
      H1    -5.59617   11.63062   -0.58100
       H    -9.85163   13.18812    3.72178
       O    -9.38315   13.85341    3.22324
      H1    -9.96082   14.00895    2.50924
       H   -11.40614   11.76768    4.42927
       O   -11.04591   12.50844    4.98538
      H1   -10.42067   12.11054    5.65542
       H    -9.12997    9.81107    4.08607
       O    -9.80247    9.14151    3.89443
      H1    -9.28047    8.47635    3.42143
       H    -9.80967   11.85106    7.92911
       O    -9.41431   11.52846    7.08524
      H1    -9.61986   10.61146    7.03709
       H    -6.33570   10.98463    7.59034
       O    -6.70924   11.57358    6.93188
      H1    -7.67924   11.54203    6.98182
       H    -4.02133   12.34391    5.48115
       O    -4.45049   11.52053    5.08463
      H1    -5.30991   11.40012    5.54033

