57
frame 8 | Written by MDAnalysis XYZWriter (release 2.4.3)
       H     9.40263  -12.97957   -1.17745
       O     8.54819  -12.65869   -1.50343
      H1     8.69539  -12.06023   -2.21830
       H    11.31477  -14.40646    1.46708
       O    11.66948  -14.66367    2.34127
      H1    12.07512  -15.56108    2.34982
       H    13.99358  -16.55174   -2.43734
       O    13.44468  -15.76123   -2.63026
      H1    13.08491  -16.17078   -3.42188
       H    13.40257  -18.12526   -5.19910
       O    12.44392  -18.36228   -5.11392
      H1    12.07143  -17.87129   -5.82052
       H     8.48001  -16.19568   -0.53534
       O     8.86562  -15.52120   -0.00655
      H1     8.66752  -15.83604    0.87470
       H     8.23753  -14.11001   -2.54987
       O     8.22040  -14.76203   -3.23847
      H1     8.89082  -14.58457   -3.90241
       H    10.59653  -18.21327   -0.03824
       O    10.16488  -19.02533    0.23300
      H1     9.25511  -18.89965   -0.12743
       H     8.24128  -17.63737   -2.56433
       O     7.70815  -17.75695   -1.77056
      H1     6.95100  -17.14886   -1.82383
       H     8.35703  -13.08991    2.86414
       O     7.92871  -13.92270    2.69211
      H1     8.61343  -14.57623    2.82283
       H    14.49432  -18.43870   -1.63201
       O    15.00571  -17.63748   -1.72374
      H1    15.50975  -17.37242   -0.92397
       H    14.01605  -12.94345   -0.72795
       O    13.32434  -13.17890   -1.38059
      H1    13.42958  -14.09862   -1.60621
       H     7.39191  -14.46247    0.18735
       O     6.48147  -14.04155   -0.02217
      H1     6.65805  -13.21874   -0.51057
       H    10.10569  -19.14807   -3.43587
       O     9.84806  -18.21701   -3.63717
      H1    10.80556  -17.97667   -3.64793
       H    11.83600  -16.03966   -1.22426
       O    11.29827  -16.60486   -0.60516
      H1    10.50415  -16.03757   -0.50707
       H     9.98808  -18.70905    4.76143
       O     9.18731  -18.16319    4.71790
      H1     9.23274  -17.74854    5.57436
       H    14.04648  -17.75806    3.16098
       O    14.80837  -17.98205    3.80325
      H1    15.36966  -17.23874    3.93304
       H    12.13956  -17.38118    1.51165
       O    12.33447  -17.54375    2.41030
      H1    11.46755  -17.52112    2.82756
       H    10.74835  -12.21148    0.20247
       O    11.02946  -13.11071   -0.01182
      H1    11.93242  -13.05961   -0.40431
       H     9.72868  -18.11000    1.97456
       O     9.33667  -17.29848    2.27769
      H1     9.20438  -17.33683    3.25329

