57
frame 7 | Written by MDAnalysis XYZWriter (release 2.4.3)
       H   -16.18618   12.45361   11.24917
       O   -16.50719   11.51447   11.22302
      H1   -17.24279   11.58375   11.86539
       H   -18.78250   11.35883    5.92395
       O   -19.08098   10.81896    6.69331
      H1   -19.23083   11.54843    7.34776
       H   -15.51834    7.98172   10.33192
       O   -15.21524    8.92151   10.17748
      H1   -15.80171    9.54669   10.59919
       H   -18.25559   14.93929    2.50090
       O   -18.82778   15.59496    2.87846
      H1   -19.49884   15.18503    3.47679
       H   -15.99030   10.14835    7.33990
       O   -16.83133    9.73226    7.43989
      H1   -17.65448   10.20545    7.15497
       H   -19.83637    9.54536    1.71091
       O   -19.64931    9.93487    2.61331
      H1   -19.43122    9.22253    3.21393
       H   -18.31636    7.40701    4.01336
       O   -18.80285    7.84599    4.71615
      H1   -18.10575    8.16641    5.26268
       H   -17.99418   12.55706    3.82064
       O   -18.84628   12.27171    4.15533
      H1   -19.18736   11.62429    3.53781
       H   -19.11020   13.17985    9.39733
       O   -18.97474   12.94555    8.44629
      H1   -18.97514   13.75880    7.96557
       H   -16.86386    7.84125    7.71656
       O   -16.89124    6.85560    7.51532
      H1   -17.91512    6.72651    7.49668
       H   -14.33699   13.32424    5.16037
       O   -14.50399   12.97143    6.01656
      H1   -14.69438   12.04092    5.97127
       H   -14.39125    6.95325    5.04626
       O   -15.20517    7.33548    4.62802
      H1   -14.91581    7.38929    3.71957
       H   -14.78007    8.94418    5.03024
       O   -14.37134    9.78472    5.34430
      H1   -13.76589    9.90623    4.61703
       H   -16.09622   14.87130    8.77713
       O   -15.98409   15.82401    8.85738
      H1   -15.18350   16.03595    9.40304
       H   -18.05412   15.78228    5.93075
       O   -18.63809   15.23376    6.47357
      H1   -19.34620   15.84794    6.72548
       H   -18.32182    9.81335    9.26849
       O   -19.09824    9.32320    9.43021
      H1   -18.94600    8.59655   10.09537
       H   -19.11043   13.50297   12.12170
       O   -19.62707   13.34411   11.30209
      H1   -19.93650   12.42020   11.24047
       H   -14.16454   12.35305    8.86980
       O   -13.47719   11.85698    9.32740
      H1   -13.28980   11.11070    8.73101
       H   -16.72629   12.65281    8.15898
       O   -15.87232   13.10636    8.31502
      H1   -15.44882   13.12266    7.43506

