57
frame 8 | Written by MDAnalysis XYZWriter (release 2.4.3)
       H   -15.83539   -6.13481    9.72007
       O   -16.05806   -6.96555    9.22368
      H1   -16.84753   -6.63484    8.75157
       H   -18.80058    0.41225   10.22024
       O   -19.45321    0.43379   10.91295
      H1   -19.18611    1.21607   11.37646
       H   -16.30649   -5.22051   13.02393
       O   -15.62424   -4.55447   13.17083
      H1   -15.69848   -4.41479   14.13685
       H   -14.35639    2.40856   10.34842
       O   -13.57532    2.39898    9.85392
      H1   -13.34560    1.49563    9.72479
       H   -15.78670   -2.81558   12.72978
       O   -16.02956   -1.93731   12.38406
      H1   -16.99883   -1.83019   12.49751
       H   -15.79845   -4.21659   11.17702
       O   -15.27671   -4.29106   10.36493
      H1   -14.37485   -3.99739   10.45083
       H   -15.73051    1.82196   11.77829
       O   -15.95788    2.46930   11.13672
      H1   -16.37752    1.99052   10.32263
       H   -16.75429    0.68642    8.58624
       O   -16.94567    0.34609    9.49818
      H1   -16.28053   -0.36955    9.73380
       H   -12.06892   -0.05409   11.42453
       O   -12.35649   -0.49194   10.57241
      H1   -13.26868   -0.63055   10.63412
       H   -15.17421   -0.11116   12.80916
       O   -14.83132    0.74010   13.09012
      H1   -13.87645    0.73307   12.91435
       H   -19.41700   -2.52483   10.11696
       O   -18.90387   -2.75486    9.33794
      H1   -19.12007   -2.15378    8.61521
       H   -11.80721   -1.05445    7.27630
       O   -12.55632   -0.49860    7.35867
      H1   -12.96014   -0.57911    6.45312
       H   -14.69237   -1.66084    9.07022
       O   -14.82655   -1.23555    9.92464
      H1   -15.35293   -1.90189   10.43991
       H   -19.12859   -5.91159    8.93721
       O   -18.63493   -5.32804    8.35639
      H1   -18.73146   -4.43325    8.80679
       H   -19.04883   -0.66455   12.21421
       O   -18.83384   -1.46065   12.69339
      H1   -18.77974   -1.23540   13.59871
       H   -14.47954   -5.72486    6.94469
       O   -14.69004   -4.92449    6.52528
      H1   -15.14584   -4.38205    7.19119
       H   -15.47102   -0.16015   16.04112
       O   -15.61763   -0.83221   15.39730
      H1   -15.02937   -0.55900   14.67140
       H   -16.75399   -2.33610    6.97945
       O   -16.07192   -2.76354    7.57772
      H1   -16.51799   -2.85875    8.42403
       H   -12.20591   -2.52830    9.92587
       O   -12.66543   -3.31925    9.64741
      H1   -12.55010   -3.40302    8.69014

