57
frame 8 | Written by MDAnalysis XYZWriter (release 2.4.3)
       H    -4.85292   -2.90203  -12.67257
       O    -4.11953   -3.12445  -12.11298
      H1    -3.33747   -2.74062  -12.42005
       H    -7.73575    0.64356  -16.55129
       O    -7.36595    0.91842  -15.69719
      H1    -7.32676    1.88363  -15.65668
       H    -3.24058   -2.87549  -17.67997
       O    -3.18731   -2.72422  -16.62906
      H1    -3.08826   -1.74700  -16.58898
       H    -4.25994   -0.18409  -14.83678
       O    -4.82905   -0.90631  -14.53904
      H1    -5.48216   -0.34507  -14.09186
       H    -6.62506    1.42149  -11.14270
       O    -6.83858    0.50957  -10.89441
      H1    -7.60000    0.48465  -10.31465
       H    -1.87125    1.33264  -19.71358
       O    -2.28683    0.66043  -19.16843
      H1    -2.73847    1.21738  -18.54981
       H    -7.65917   -3.01978  -12.64126
       O    -7.14917   -2.17101  -12.71377
      H1    -7.46924   -1.62545  -12.01064
       H    -6.32407   -1.14567  -18.23307
       O    -6.20130   -0.25296  -17.88930
      H1    -6.15400   -0.21731  -16.97183
       H    -1.78538    1.44841  -13.57894
       O    -1.09015    1.35374  -14.30524
      H1    -0.48008    0.62246  -13.98167
       H     0.49045   -0.38616  -12.23726
       O     0.29965   -0.66719  -13.10081
      H1    -0.29887   -1.45256  -12.97229
       H    -2.42208    1.27050  -11.45026
       O    -2.74021    1.94596  -12.10043
      H1    -3.66606    2.10717  -12.11087
       H    -1.88225    0.35865  -17.00514
       O    -2.54485    0.20524  -16.29209
      H1    -2.19047    0.63612  -15.48100
       H    -2.82488    2.24794  -16.92306
       O    -2.98364    3.00294  -17.54337
      H1    -3.94446    3.14231  -17.48409
       H    -0.03431   -2.09777  -16.54621
       O    -0.53690   -2.66409  -17.20577
      H1    -1.44997   -2.59911  -16.94926
       H    -0.96741   -2.80449  -11.56315
       O    -1.46042   -2.72482  -12.38535
      H1    -1.52077   -3.56787  -12.76696
       H    -4.82275   -0.45036  -10.44535
       O    -4.25151   -1.13250  -10.19624
      H1    -4.31031   -1.88137  -10.76536
       H    -7.43881   -2.50121  -15.30718
       O    -6.61628   -2.66104  -15.87719
      H1    -5.93670   -2.15456  -15.46382
       H    -6.15468   -4.49987  -14.94700
       O    -5.80798   -5.34803  -14.69128
      H1    -6.12347   -6.00128  -15.32544
       H    -4.93691    2.77123  -10.37743
       O    -5.21605    2.81034  -11.28783
      H1    -5.59115    3.68246  -11.31762

