57
frame 8 | Written by MDAnalysis XYZWriter (release 2.4.3)
       H   -16.58040    6.86535   10.16984
       O   -16.59763    7.32479   11.06278
      H1   -17.49911    7.76049   11.24841
       H   -16.96525    4.66876   18.09581
       O   -15.98488    4.72797   17.88418
      H1   -15.84956    5.69081   17.90643
       H   -13.63869    3.84255   14.84212
       O   -13.23804    4.29106   14.10234
      H1   -12.36316    4.68610   14.43843
       H   -18.66361    6.05046   15.38281
       O   -17.79029    5.66659   15.60954
      H1   -17.41861    5.00752   14.99849
       H   -16.01053    4.14989   12.12300
       O   -15.95426    4.50057   13.02660
      H1   -15.63882    5.37931   13.04736
       H   -19.20672    2.37875   13.11759
       O   -18.63214    2.50926   12.38293
      H1   -17.70358    2.57912   12.50941
       H   -16.31306    6.81829   15.96063
       O   -15.39938    7.18430   16.02385
      H1   -14.94572    7.03633   15.18552
       H   -15.99670    9.79900   17.85282
       O   -16.53420    9.15217   17.46538
      H1   -16.00186    8.63881   16.83575
       H   -13.60678    8.67404   14.71009
       O   -12.83338    8.42491   15.24327
      H1   -13.11483    8.46053   16.16870
       H   -16.82428   10.95225   14.94969
       O   -17.60625   11.44715   15.27085
      H1   -17.68686   11.33636   16.22448
       H   -17.98451    8.09963   18.05588
       O   -18.83098    7.59613   18.10880
      H1   -19.38882    7.99503   18.81540
       H   -13.98987    6.76945   17.03173
       O   -13.43069    7.12187   17.76583
      H1   -12.76929    6.42616   17.86684
       H   -15.05867    7.29409   12.55748
       O   -14.56485    6.85477   13.25817
      H1   -13.80110    6.39107   12.83974
       H   -14.94529    4.13261   19.24701
       O   -14.08430    3.76337   19.68182
      H1   -13.42238    4.27523   19.16802
       H   -19.14299    2.75888   17.83934
       O   -19.60001    1.91321   18.01318
      H1   -18.89318    1.44381   18.51014
       H   -19.48102    7.53485   12.19436
       O   -18.92738    8.29225   12.21307
      H1   -19.22605    8.72417   13.00024
       H   -15.79168    4.03322   16.29251
       O   -15.64586    3.31153   15.63176
      H1   -15.60623    3.64213   14.64984
       H   -15.92816    1.84735   16.56519
       O   -16.10656    1.19320   17.27478
      H1   -15.24915    1.25794   17.82274
       H   -18.69189    5.49067   18.32035
       O   -18.60341    4.57084   17.96455
      H1   -18.38894    4.94070   17.05534

