57
frame 8 | Written by MDAnalysis XYZWriter (release 2.4.3)
       H    16.99138   14.18513   -4.26056
       O    16.02477   14.18641   -4.04069
      H1    15.67523   13.28570   -4.06508
       H    17.29108   16.43609   -6.85353
       O    17.73471   17.06428   -6.29346
      H1    17.03912   17.33766   -5.64197
       H    18.84414   17.57997   -3.26450
       O    19.54550   16.93670   -3.43714
      H1    19.62501   16.45964   -2.58426
       H    13.37625   18.90934   -0.54038
       O    14.03630   19.06225   -1.15464
      H1    14.29715   18.21699   -1.58418
       H    10.60758   18.31532   -2.38728
       O    11.18925   18.69491   -3.07013
      H1    12.07123   18.77430   -2.73079
       H    19.43725   20.00150   -6.85345
       O    18.64214   19.63919   -6.39210
      H1    18.43357   18.85142   -6.98993
       H    12.38328   15.17556   -0.11598
       O    12.53737   14.59993   -0.89436
      H1    11.69204   14.69678   -1.43894
       H    16.39063   17.75564    0.79184
       O    16.13826   18.69473    0.73649
      H1    15.34267   18.81121    0.21224
       H    15.67817   13.47072   -6.26759
       O    15.21507   13.73901   -7.09045
      H1    15.87784   14.21731   -7.58306
       H    10.67487   14.16436   -5.44543
       O    11.02356   14.67108   -4.75146
      H1    10.95800   15.57122   -5.07761
       H    13.10069   18.94879   -5.99149
       O    13.49707   18.18390   -5.61678
      H1    13.49343   17.57376   -6.37509
       H    10.95520   17.92554   -4.62154
       O    10.52899   17.42923   -5.38864
      H1     9.68274   17.90719   -5.47931
       H    14.12651   13.26297   -0.69340
       O    14.55083   12.75992   -0.03466
      H1    14.28733   11.89177   -0.32381
       H    17.64592   19.06063   -0.37252
       O    18.53458   19.24693   -0.70006
      H1    18.49903   19.44182   -1.66429
       H    16.74426   18.79623   -3.60924
       O    17.69402   18.96447   -3.39499
      H1    17.94547   19.52868   -4.09242
       H    17.09388   19.92691   -7.15742
       O    16.17114   19.91557   -7.45654
      H1    15.96574   19.31047   -8.19299
       H    14.68884   17.83701   -4.18502
       O    15.07538   17.48561   -3.37306
      H1    15.08904   16.50784   -3.41870
       H    18.43829   15.03538   -5.24675
       O    18.73579   14.55048   -4.48382
      H1    18.87341   15.22010   -3.80150
       H    14.10004   15.00342   -6.47550
       O    13.26192   15.45010   -6.60477
      H1    12.68136   15.17096   -5.88347

