57
frame 8 | Written by MDAnalysis XYZWriter (release 2.4.3)
       H    -0.42735  -16.43465    2.71999
       O     0.52283  -16.72059    2.83900
      H1     1.00676  -16.00390    2.39873
       H     1.11591  -14.35384    7.85280
       O     1.33956  -13.93454    8.68461
      H1     1.73513  -13.04520    8.34742
       H     1.56443  -13.94155    1.64054
       O     1.89156  -14.50451    2.32206
      H1     2.85205  -14.37105    2.25792
       H     4.49695  -10.95487    1.48721
       O     5.26565  -10.62958    1.00166
      H1     5.30724   -9.67766    1.27242
       H     2.81429  -11.87558    3.23469
       O     2.99085  -11.25295    2.50155
      H1     2.09532  -10.75479    2.33202
       H    -0.63363  -13.30202    4.48339
       O    -0.14484  -13.14864    5.33274
      H1     0.81849  -13.00454    5.15427
       H     4.42899  -15.18316    1.60256
       O     4.72823  -14.47568    2.18060
      H1     5.29567  -14.05207    1.53827
       H    -0.83348  -10.13191    8.06859
       O    -1.32218  -10.75579    7.48666
      H1    -0.69637  -11.38682    7.06220
       H     4.07029  -17.23509    4.92259
       O     3.86803  -18.20565    4.98440
      H1     2.90770  -18.19131    4.84139
       H     5.10433  -12.13012    6.48536
       O     4.22567  -12.36564    6.88940
      H1     4.45989  -12.58036    7.83658
       H    -0.30818  -15.54557    6.89422
       O     0.62394  -15.44669    6.69187
      H1     0.59602  -14.89640    5.93457
       H     0.03105   -8.61157    5.90403
       O     0.68564   -9.20717    5.53633
      H1     0.92384   -9.79416    6.25172
       H     2.93120  -11.07490    7.58833
       O     2.03171  -10.99064    7.83915
      H1     1.98406  -10.10163    8.26465
       H     4.58467  -15.01853    5.44432
       O     4.07788  -15.37090    4.68507
      H1     4.66379  -15.05581    3.95946
       H     4.30279  -10.28960    3.84001
       O     4.75675   -9.52950    4.22721
      H1     5.55894  -10.02031    4.56307
       H     3.55951  -16.29646    8.71993
       O     3.21407  -15.70206    9.39005
      H1     2.44900  -15.28024    9.00759
       H     0.26799   -9.89499    3.54054
       O     0.47907  -10.26593    2.72283
      H1    -0.35212  -10.57248    2.32813
       H     2.84319  -12.42383    5.61488
       O     2.40928  -12.80102    4.85055
      H1     2.81796  -13.69508    4.69634
       H     1.04904  -17.13484    5.69093
       O     1.05166  -17.94044    5.15300
      H1     0.90366  -17.64886    4.26357

