57
frame 7 | Written by MDAnalysis XYZWriter (release 2.4.3)
       H    -6.56208   10.19022  -18.22778
       O    -7.17024   10.84512  -18.69507
      H1    -7.26876   11.50930  -18.03592
       H    -6.05513    5.62417  -18.06354
       O    -6.23218    6.19025  -17.28781
      H1    -5.35726    6.23634  -16.82313
       H    -9.44819    8.92807  -16.80850
       O    -8.91242    9.70000  -16.68504
      H1    -8.50200   10.01433  -17.53544
       H    -6.56917    0.75653  -15.66022
       O    -6.62197    1.45307  -14.97150
      H1    -6.95858    2.18420  -15.48899
       H   -10.16842    5.22104  -18.88920
       O   -10.79819    5.15212  -18.12470
      H1   -10.62186    5.99301  -17.71561
       H   -11.27240    7.47479  -16.31351
       O   -10.57321    7.67686  -17.04366
      H1   -11.08864    8.28610  -17.62773
       H    -5.91107    8.04211  -17.75808
       O    -5.55651    8.94785  -17.98507
      H1    -5.37793    9.39169  -17.14642
       H    -6.17970    7.27910  -14.27699
       O    -5.86459    6.74166  -13.55258
      H1    -5.08144    6.32296  -14.00204
       H    -2.71387    7.69344  -17.77005
       O    -2.60968    8.04583  -16.89830
      H1    -2.93203    9.00928  -16.99867
       H    -2.49460    1.83954  -19.26675
       O    -3.46881    1.82769  -19.32657
      H1    -3.70767    2.58929  -18.79382
       H    -1.55307    4.07502  -16.74352
       O    -0.57457    3.99927  -16.74042
      H1    -0.18513    3.92745  -15.83733
       H    -3.50936    6.80943  -15.56265
       O    -3.81037    6.04823  -15.03437
      H1    -2.99805    5.77220  -14.51786
       H    -7.52316    4.74840  -16.57140
       O    -7.54781    3.85787  -16.15909
      H1    -8.42101    3.46223  -16.29324
       H    -6.73669    9.22818  -14.29301
       O    -6.64455    9.00786  -15.23365
      H1    -7.58182    9.03812  -15.58350
       H    -3.34840    2.80682  -16.58945
       O    -3.27564    3.71523  -16.95111
      H1    -3.79746    4.36654  -16.48368
       H    -5.73847    1.07410  -19.47700
       O    -6.29217    1.84251  -19.71162
      H1    -7.20500    1.58084  -19.57573
       H    -1.85120    5.79135  -19.36221
       O    -0.99029    6.04083  -19.11487
      H1    -0.69031    5.43977  -18.44331
       H    -3.14715    8.79202  -13.56981
       O    -3.92069    9.13440  -14.01627
      H1    -4.38088    8.33597  -14.31814
       H    -7.71861    4.87957  -14.62546
       O    -7.94677    5.07135  -13.71368
      H1    -7.20448    5.69239  -13.41495

