57
frame 8 | Written by MDAnalysis XYZWriter (release 2.4.3)
       H    14.16877  -13.33383    3.44933
       O    13.54433  -12.90718    2.88452
      H1    12.82759  -13.54210    2.61047
       H    20.13336  -18.05504   -3.37261
       O    19.60745  -17.67263   -4.06894
      H1    18.80154  -17.39455   -3.65114
       H    16.85764  -14.54294   -0.23496
       O    16.98661  -13.69347   -0.63518
      H1    16.88193  -13.87817   -1.61232
       H    18.60604  -13.11651   -0.31070
       O    19.46277  -12.66588   -0.34186
      H1    19.63223  -12.32945    0.51930
       H    13.99358  -16.55174   -2.43734
       O    13.44468  -15.76123   -2.63026
      H1    13.08491  -16.17078   -3.42188
       H    14.41239  -12.30780    1.43363
       O    14.93588  -12.08922    0.60899
      H1    15.70475  -12.69211    0.81470
       H    15.49019  -13.70594    5.35857
       O    15.83348  -13.72660    4.47558
      H1    16.50826  -13.01570    4.36024
       H    18.48037  -18.66395    1.93533
       O    18.29414  -19.46912    2.46966
      H1    17.49783  -19.78079    2.04287
       H    14.49432  -18.43870   -1.63201
       O    15.00571  -17.63748   -1.72374
      H1    15.50975  -17.37242   -0.92397
       H    14.01605  -12.94345   -0.72795
       O    13.32434  -13.17890   -1.38059
      H1    13.42958  -14.09862   -1.60621
       H    16.82349  -14.99211   -3.53344
       O    17.12741  -14.12695   -3.30861
      H1    16.39586  -13.63205   -3.62325
       H    17.47703  -16.56478    4.94588
       O    16.84430  -16.16726    4.23737
      H1    16.59822  -15.27360    4.57131
       H    11.83600  -16.03966   -1.22426
       O    11.29827  -16.60486   -0.60516
      H1    10.50415  -16.03757   -0.50707
       H    19.61551  -18.72897    5.09025
       O    18.70231  -18.31601    5.13881
      H1    18.43604  -18.36081    4.20176
       H    17.40186  -16.77181    0.52381
       O    16.57083  -16.33768    0.31712
      H1    16.23879  -16.16673    1.24687
       H    14.04648  -17.75806    3.16098
       O    14.80837  -17.98205    3.80325
      H1    15.36966  -17.23874    3.93304
       H    12.13956  -17.38118    1.51165
       O    12.33447  -17.54375    2.41030
      H1    11.46755  -17.52112    2.82756
       H    19.89880  -17.23112    0.67837
       O    19.02992  -17.59293    0.76212
      H1    19.01544  -18.30538    0.14062
       H    16.37436  -17.29156   -4.21589
       O    16.93911  -16.95175   -3.47207
      H1    16.56261  -17.23920   -2.65636

