57
frame 8 | Written by MDAnalysis XYZWriter (release 2.4.3)
       H    13.39463   -1.71181   -8.65858
       O    12.65273   -1.42364   -8.05116
      H1    12.25385   -0.74634   -8.62896
       H    13.50944    0.92446   -6.40974
       O    14.01374    0.77756   -7.14823
      H1    13.48619    0.20078   -7.67950
       H    14.85508    3.20669   -5.80794
       O    14.57766    3.07623   -4.82930
      H1    13.89615    3.72601   -4.60170
       H    15.28012   -1.23982   -3.78883
       O    15.85865   -0.92646   -3.07475
      H1    15.28063   -0.28272   -2.54761
       H    14.54905   -2.79656  -10.65033
       O    14.46150   -3.17368   -9.72252
      H1    14.01574   -4.01712   -9.83236
       H    17.25907   -2.72735   -8.01259
       O    16.91793   -2.45798   -8.90050
      H1    16.05630   -2.84328   -8.84936
       H    13.08299    1.97662   -4.64945
       O    12.43545    1.32361   -4.85001
      H1    12.13540    0.91657   -4.02196
       H    16.71214    3.39340   -4.49095
       O    17.34654    3.89721   -3.97610
      H1    18.16261    3.71943   -4.46294
       H    17.54549    2.64118  -11.36913
       O    17.20016    1.97427  -10.76466
      H1    16.26881    2.08304  -10.63190
       H    11.36720   -4.32188   -6.70031
       O    11.35796   -3.94554   -7.61117
      H1    11.83284   -3.08844   -7.55836
       H    11.07434    2.32599   -5.62572
       O    10.13486    2.69222   -5.75889
      H1    10.36485    3.63375   -5.98581
       H    17.56397    0.36677   -5.61361
       O    17.68435    0.43361   -4.69758
      H1    16.85137    0.06870   -4.27046
       H    13.67716   -2.27226   -4.73074
       O    14.56960   -2.51975   -5.12443
      H1    14.58421   -3.48399   -5.19753
       H    15.00991    3.02798   -8.11707
       O    15.95087    2.81367   -7.92295
      H1    16.11788    1.86980   -8.09972
       H    16.56923    4.11098   -9.19996
       O    16.76737    4.97670   -9.65121
      H1    16.29861    4.82830  -10.52562
       H    16.72637   -0.63368   -7.79751
       O    16.64537    0.08071   -7.21734
      H1    15.74184   -0.03851   -6.98119
       H    12.14315    0.46453  -10.41183
       O    11.99803    0.80267   -9.52709
      H1    11.04957    0.94512   -9.56324
       H    13.12330    3.40463  -10.79668
       O    13.02398    3.31811   -9.83364
      H1    12.67696    2.47464   -9.59913
       H    16.68062   -2.33073   -6.01484
       O    17.42728   -2.80772   -6.40061
      H1    17.50106   -3.62817   -5.90850

