57
frame 8 | Written by MDAnalysis XYZWriter (release 2.4.3)
       H     7.99810   -2.00436   16.70870
       O     7.90443   -2.97683   16.76122
      H1     8.81160   -3.17277   17.00550
       H     7.56493   -3.35124   12.34992
       O     7.56007   -3.41185   11.38593
      H1     6.97820   -4.18173   11.26545
       H     1.33279   -6.81350   14.42764
       O     2.02314   -6.51527   15.03767
      H1     2.83318   -6.82366   14.71449
       H     8.56668   -8.40188   13.96187
       O     9.15213   -7.69638   13.55170
      H1     9.15995   -7.90276   12.61235
       H    11.39209   -5.97505   14.44408
       O    11.54377   -6.43333   13.63349
      H1    10.87741   -7.11581   13.48174
       H     4.27609   -4.97758   15.53205
       O     4.74796   -4.13609   15.46615
      H1     5.64061   -4.35687   15.02479
       H     6.45893   -7.19770   11.06114
       O     6.84858   -6.31441   11.17711
      H1     7.32814   -6.12456   10.33676
       H     4.70002  -10.39138   14.52862
       O     5.04688   -9.90446   13.74689
      H1     4.39105   -9.91387   13.02289
       H    11.39901   -5.84119   17.19070
       O    11.13753   -5.30681   16.43268
      H1    11.90031   -4.71092   16.29746
       H     7.93674   -4.72881   14.31938
       O     8.01128   -3.78490   14.19816
      H1     7.91166   -3.46880   15.13566
       H     4.23353   -4.32291   11.51404
       O     4.28453   -5.25673   11.22756
      H1     5.19054   -5.53559   11.33482
       H     4.38458   -6.72465   12.78557
       O     4.35391   -7.07550   13.67747
      H1     4.66691   -7.99506   13.63958
       H     4.43533   -7.16667   18.52893
       O     4.17922   -6.72597   17.71449
      H1     5.07173   -6.38725   17.48943
       H     8.81610   -4.81250   20.24997
       O     9.14030   -5.05606   19.37090
      H1     8.31712   -5.15741   18.89939
       H     8.24610   -8.01299   17.64697
       O     8.26076   -8.91063   17.28901
      H1     9.10704   -9.37737   17.24420
       H     7.91618   -9.37659   15.46375
       O     7.73231   -9.74515   14.58233
      H1     6.77782   -9.89052   14.53788
       H     6.46537   -6.76305   14.36674
       O     7.04113   -6.40714   15.04847
      H1     7.86744   -6.80185   14.79203
       H     6.86715   -5.88764   16.89218
       O     6.85663   -5.98638   17.84537
      H1     6.58005   -5.12778   18.22051
       H     9.60383   -3.00603   14.15034
       O    10.52068   -2.64960   14.10571
      H1    10.42964   -2.04567   13.34559

