57
frame 7 | Written by MDAnalysis XYZWriter (release 2.4.3)
       H   -10.76795  -13.05955   13.17769
       O   -11.00359  -13.85101   12.66096
      H1   -11.95049  -13.95347   12.67156
       H   -11.26876  -10.06051   17.01102
       O   -12.04792  -10.29937   17.52186
      H1   -12.45356   -9.41092   17.68354
       H    -5.98425  -16.27773   18.06161
       O    -5.56398  -15.91184   17.28104
      H1    -6.11305  -15.13919   17.06425
       H   -14.24693  -10.03257   15.21200
       O   -13.95100  -10.83502   15.63540
      H1   -13.25366  -10.55837   16.32874
       H   -16.25674  -13.99211   18.89734
       O   -16.80349  -13.32017   18.42555
      H1   -16.45073  -13.12109   17.56283
       H   -12.05590  -14.84062   19.86371
       O   -11.68450  -14.84619   18.99336
      H1   -10.93533  -14.27536   19.14771
       H    -7.89012  -13.27423   16.14888
       O    -7.00337  -13.71740   16.30673
      H1    -6.37237  -13.83663   15.55158
       H   -14.85571  -12.11835   15.83794
       O   -15.29774  -13.00524   15.93213
      H1   -14.62642  -13.66136   16.02327
       H   -13.17932  -19.90431   19.43805
       O   -13.75968  -19.28460   18.90129
      H1   -13.27546  -19.02487   18.06351
       H   -11.39484  -15.97323   16.05469
       O   -12.21131  -16.01518   16.54187
      H1   -12.07989  -15.46665   17.31208
       H   -12.24152  -16.77712   12.34239
       O   -12.63982  -16.81442   13.21657
      H1   -12.04150  -16.23456   13.76766
       H    -7.92545  -15.66677   16.51598
       O    -8.50075  -16.36720   16.35130
      H1    -8.02264  -17.09695   15.88189
       H    -9.57200  -12.16790   15.24130
       O    -9.51532  -12.40972   16.16196
      H1   -10.32263  -12.95673   16.38513
       H   -10.08607  -14.89903   14.06094
       O   -10.32672  -15.64247   14.66785
      H1    -9.51566  -15.87650   15.22818
       H    -9.92666  -17.46799   19.37924
       O   -10.38379  -17.74952   18.58780
      H1   -11.10572  -17.12128   18.53137
       H   -14.33693  -17.97699   16.24440
       O   -13.43530  -18.33204   16.28745
      H1   -12.92452  -17.44295   16.37873
       H    -6.16240  -12.09203   18.82280
       O    -6.05240  -11.73992   17.88854
      H1    -6.28894  -12.47995   17.29184
       H    -6.87664  -18.47953   18.23087
       O    -7.21429  -17.72867   18.75108
      H1    -8.05113  -17.48481   18.32298
       H    -9.09682  -11.00555   17.69576
       O    -8.71943  -10.89884   18.55428
      H1    -7.81677  -11.04672   18.22771

