57
frame 8 | Written by MDAnalysis XYZWriter (release 2.4.3)
       H    -0.42735  -16.43465    2.71999
       O     0.52283  -16.72059    2.83900
      H1     1.00676  -16.00390    2.39873
       H    -4.01064  -17.97387   -3.21816
       O    -3.10858  -18.18104   -3.53569
      H1    -2.86344  -17.55585   -4.21098
       H     1.56443  -13.94155    1.64054
       O     1.89156  -14.50451    2.32206
      H1     2.85205  -14.37105    2.25792
       H     3.91215  -14.28745   -3.03906
       O     3.54310  -13.98518   -3.92466
      H1     2.98518  -14.70838   -4.29939
       H    -0.76473  -12.37127   -4.08018
       O    -0.17770  -11.89609   -3.46852
      H1    -0.67226  -11.80225   -2.66666
       H     1.27708  -14.83206   -1.87247
       O     1.79645  -14.12077   -1.48479
      H1     1.80997  -13.32921   -2.05844
       H     6.47131  -15.75632   -3.26137
       O     5.72161  -16.29228   -3.09711
      H1     5.17265  -15.81804   -2.46557
       H     5.20593  -19.39402   -1.26174
       O     4.32034  -19.03769   -1.35988
      H1     3.86554  -19.71966   -1.83018
       H     0.08547  -19.79964   -3.52857
       O     0.45034  -19.60063   -2.62637
      H1    -0.24638  -19.10459   -2.14344
       H     2.66376  -16.65859    0.72994
       O     3.57622  -16.50547    0.55047
      H1     3.65142  -16.32306   -0.38060
       H    -1.79099  -15.15146    0.28220
       O    -2.20875  -16.02956    0.31365
      H1    -1.98944  -16.59906   -0.44387
       H    -2.99870  -15.66512   -5.66893
       O    -2.31508  -16.14374   -5.14238
      H1    -1.61270  -16.26364   -5.78083
       H     3.40430  -14.37039   -1.29688
       O     4.30827  -14.72538   -1.42896
      H1     4.97511  -14.38203   -0.76851
       H    -1.03632  -13.23602   -0.66463
       O    -0.68037  -13.91269    0.00138
      H1     0.11792  -14.20236   -0.49422
       H    -2.24003  -18.37473   -2.10621
       O    -1.60428  -18.15521   -1.36350
      H1    -1.64149  -18.84876   -0.68396
       H     0.17616  -16.68309   -2.90522
       O     0.56899  -16.45926   -2.09405
      H1     0.08172  -17.20339   -1.51602
       H     0.47853  -17.85573    1.17738
       O     0.87922  -18.18552    0.33735
      H1     1.70205  -18.70902    0.62734
       H     0.56229  -16.21591   -6.65035
       O    -0.24169  -16.75468   -6.87892
      H1    -0.25283  -17.01439   -7.79961
       H     1.79725  -14.89739   -7.24914
       O     1.62655  -14.70700   -6.31172
      H1     1.04643  -13.93320   -6.33100

