57
frame 9 | Written by MDAnalysis XYZWriter (release 2.4.3)
       H    12.97863  -16.02281   12.35283
       O    12.79751  -16.11741   11.40828
      H1    11.95642  -16.58776   11.26571
       H     7.14343  -17.99883   14.51654
       O     7.15393  -17.07754   14.31936
      H1     6.24140  -16.78014   14.25769
       H     7.69989  -17.28951   18.14994
       O     8.59075  -16.93067   18.17978
      H1     8.44955  -16.12670   17.63130
       H     9.32942  -13.42345   13.29949
       O     9.70624  -14.21617   13.67521
      H1     9.12026  -14.49061   14.41418
       H    12.40591  -14.36069   15.04681
       O    11.85688  -13.64864   15.47474
      H1    11.04607  -13.88395   15.04347
       H    11.87051  -12.21714   14.02525
       O    12.04156  -11.29107   13.83107
      H1    11.82490  -11.12756   12.90637
       H    10.43638  -16.99166   13.40886
       O    11.28924  -17.30330   13.75775
      H1    11.39259  -18.24634   13.66667
       H     8.81357  -18.30979   10.89437
       O     7.98913  -18.85731   11.12614
      H1     8.27807  -19.71440   11.36759
       H     7.19239  -15.99986   11.30160
       O     7.87317  -15.29785   11.39588
      H1     8.05168  -15.26325   12.32556
       H     7.81911  -15.89693   15.40089
       O     8.25434  -15.07808   15.73416
      H1     7.59126  -14.54711   16.24883
       H     9.72166  -17.05134    9.66807
       O     9.88396  -17.04025   10.61930
      H1     9.33939  -16.25148   10.94677
       H    14.79038  -15.50621   14.96699
       O    13.97885  -14.99887   14.55416
      H1    14.41038  -14.46131   13.94767
       H    12.71427  -14.68121   18.23608
       O    12.23892  -13.84059   18.13983
      H1    12.10597  -13.77369   17.15982
       H     9.91936  -17.92353   17.03273
       O    10.46772  -18.13824   16.29871
      H1    10.72574  -17.30530   15.86164
       H    13.59266  -17.20923   10.38962
       O    13.95354  -17.97035    9.80885
      H1    13.40981  -18.03003    9.00226
       H    12.41333  -14.08203    9.42853
       O    12.86339  -13.51584   10.04107
      H1    13.01763  -14.11938   10.72927
       H    15.78631  -16.07620   16.53493
       O    15.95893  -16.51009   15.67401
      H1    15.95638  -17.39481   15.98305
       H     6.72533  -17.75700   11.30850
       O     5.99423  -17.06717   11.35638
      H1     5.68625  -17.19391   12.25788
       H    14.46490  -19.08326   17.31060
       O    14.08897  -18.69112   18.07995
      H1    13.76948  -17.80101   17.87494

