57
frame 9 | Written by MDAnalysis XYZWriter (release 2.4.3)
       H    14.86367    3.19143  -18.07370
       O    15.73359    3.38011  -18.44565
      H1    15.79949    2.97710  -19.32027
       H    13.05785    2.25248  -18.25811
       O    13.26169    2.49566  -17.32316
      H1    13.78038    1.71514  -16.98873
       H    12.96820    5.49953  -16.31323
       O    13.67589    6.04465  -16.53686
      H1    14.43051    5.59250  -16.19626
       H    18.73802    5.02881  -18.69034
       O    19.43419    4.51851  -18.20654
      H1    20.21692    5.08599  -18.25901
       H     7.43598    9.43800  -16.83813
       O     8.37271    9.06261  -16.84625
      H1     9.02658    9.73802  -17.02987
       H    16.11728    9.75038  -15.82509
       O    16.72131   10.37376  -16.25457
      H1    17.44242    9.98551  -16.77070
       H    11.53463    6.20148  -15.13940
       O    11.02707    5.93670  -15.92674
      H1    10.60928    5.14755  -15.79083
       H    14.66791    7.91472  -15.72364
       O    14.91402    8.69479  -15.21220
      H1    14.15520    9.25721  -15.09613
       H    10.56383    6.28089  -19.07242
       O     9.90394    5.85277  -18.54032
      H1    10.28539    6.03947  -17.67468
       H    10.96062    2.90729  -17.79072
       O    10.14109    3.07344  -18.19231
      H1    10.22380    4.01324  -18.43173
       H     9.83664   11.30725  -19.69910
       O    10.03496   10.54881  -19.10706
      H1    10.93713   10.28521  -19.24450
       H    15.89102    8.12999  -12.21910
       O    15.54264    7.43309  -12.80630
      H1    15.06352    7.83884  -13.58243
       H    12.31555    2.63475  -15.89097
       O    11.74656    2.82054  -15.13622
      H1    11.01813    2.14381  -15.09957
       H    14.17017   12.34749  -17.90230
       O    14.44635   11.94116  -18.71748
      H1    15.32046   11.62229  -18.59705
       H    18.75971    6.37572  -16.95128
       O    17.88437    6.82210  -16.69187
      H1    17.91762    7.73336  -17.02199
       H    13.67989    6.93242  -18.64921
       O    13.04918    7.21150  -19.32439
      H1    12.79199    6.38797  -19.74180
       H    10.61949   12.86598  -17.01457
       O    11.34293   12.19338  -17.16453
      H1    10.82384   11.58848  -17.69217
       H    16.98695    5.57300  -16.26603
       O    16.17136    5.03607  -16.23235
      H1    16.29254    4.46314  -16.98738
       H    13.22531   10.54541  -18.86702
       O    12.64980    9.93179  -19.30548
      H1    13.07381    9.09054  -19.40660

