57
frame 9 | Written by MDAnalysis XYZWriter (release 2.4.3)
       H    15.16119    6.41807   -6.74303
       O    14.32973    6.81282   -7.10484
      H1    14.06081    7.38087   -6.37956
       H    20.21608    5.24523   -9.59197
       O    19.97998    5.97609  -10.21270
      H1    19.18682    5.81733  -10.78405
       H    15.65658   12.04977  -12.15082
       O    16.56665   11.85105  -12.40484
      H1    17.09042   12.25173  -11.70410
       H    14.51196    7.65354   -8.50260
       O    14.39165    8.11027   -9.35740
      H1    14.09126    9.04091   -9.20108
       H    17.75788   10.66157   -8.50693
       O    18.14166   10.43999   -9.32454
      H1    17.49266    9.85897   -9.84102
       H    17.48290    6.64384   -5.92944
       O    17.26929    6.53171   -4.99994
      H1    17.74376    5.77516   -4.60709
       H    18.15952   10.76488   -6.34806
       O    17.51817   11.34352   -6.70719
      H1    16.70979   11.20414   -6.22078
       H    18.69559   11.70499  -10.17597
       O    18.73366   12.42419  -10.84568
      H1    19.62794   12.48194  -11.22645
       H    17.71542    6.66327  -12.48343
       O    17.99260    5.90920  -11.95056
      H1    18.56544    5.48432  -12.57892
       H    15.89102    8.12999  -12.21910
       O    15.54264    7.43309  -12.80630
      H1    15.06352    7.83884  -13.58243
       H    18.05013    3.26346   -4.38520
       O    18.36903    4.14464   -4.08130
      H1    19.13855    4.22980   -4.66480
       H    17.04179    3.80868  -10.16439
       O    17.65030    3.05383  -10.04121
      H1    17.36132    2.76543   -9.18475
       H    15.57342    8.65135  -10.28764
       O    16.33486    9.04078  -10.74963
      H1    16.05807    9.88254  -11.16073
       H    16.65370    6.00100   -8.47369
       O    17.05471    6.52954   -7.79362
      H1    17.75846    6.99790   -8.17049
       H    18.58847    9.26569   -3.50221
       O    18.97240    8.49904   -3.97624
      H1    18.19694    7.96885   -4.24941
       H    14.86197    5.02904   -9.89688
       O    15.71972    5.42940   -9.94588
      H1    15.82647    5.92182  -10.75394
       H    15.24934    6.86554   -4.14522
       O    14.44283    7.00219   -3.71267
      H1    14.11170    7.81512   -4.07849
       H    18.88814    8.86459   -8.88197
       O    19.18682    8.04845   -8.51312
      H1    19.54361    7.56596   -9.25870
       H    18.82606   12.57027   -6.13194
       O    19.21381   13.38014   -5.84404
      H1    19.52196   13.79854   -6.66162

