57
frame 9 | Written by MDAnalysis XYZWriter (release 2.4.3)
       H    -4.76678   -3.07210  -11.80925
       O    -4.11796   -3.55754  -11.29535
      H1    -3.26950   -3.19237  -11.56189
       H    -3.36297   -3.08256  -17.65655
       O    -3.10002   -3.36127  -16.77157
      H1    -3.00094   -2.54104  -16.30581
       H    -1.19057   -2.85467   -8.69030
       O    -0.77821   -2.08167   -9.20255
      H1    -1.20469   -1.26777   -8.90621
       H    -1.61829   -6.33461   -9.26550
       O    -2.44742   -6.76468   -9.60221
      H1    -3.18280   -6.12854   -9.67382
       H     0.95099   -5.48456   -8.94987
       O     0.06322   -5.66128   -8.68231
      H1     0.18505   -5.95452   -7.73682
       H    -2.46117   -0.45915  -14.84576
       O    -2.83024   -1.29842  -14.62743
      H1    -3.62941   -1.20143  -14.08242
       H     1.01564   -0.95734  -14.98279
       O     1.02935   -1.01177  -15.92054
      H1     1.58730   -0.29735  -16.21311
       H     1.78919   -3.02545  -12.22891
       O     2.68010   -3.10214  -11.88173
      H1     2.61308   -3.86851  -11.33383
       H     1.76677   -8.07425  -10.41563
       O     1.61602   -7.50042  -11.18802
      H1     0.67901   -7.45616  -11.40860
       H    -1.45471    1.52216  -12.31292
       O    -0.76049    1.34612  -12.98013
      H1    -0.33695    0.51928  -12.70332
       H     1.15116   -0.52046  -12.13377
       O     0.69428   -1.03719  -12.82385
      H1    -0.02605   -1.49944  -12.40824
       H    -4.81008   -4.91823  -10.55011
       O    -5.30124   -5.68782  -10.26433
      H1    -5.43001   -6.17389  -11.10868
       H    -3.69370   -6.92662  -13.24074
       O    -4.54567   -7.05622  -12.80847
      H1    -5.27616   -6.59684  -13.33936
       H    -1.31572   -2.51663  -10.79918
       O    -1.60956   -2.58695  -11.74127
      H1    -1.26688   -3.47321  -12.14826
       H    -5.54452   -0.98155  -10.25719
       O    -4.88018   -1.30272   -9.65467
      H1    -4.52402   -2.10558  -10.06464
       H     2.61048   -4.05512  -14.89269
       O     1.82444   -4.62139  -14.84301
      H1     1.28979   -4.05835  -15.43594
       H    -1.44822   -7.02791  -11.21528
       O    -1.15634   -7.20561  -12.11996
      H1    -1.43925   -8.09156  -12.46092
       H    -0.65970   -5.55844  -13.33069
       O    -0.46499   -4.62392  -13.15536
      H1     0.39101   -4.37963  -13.44044
       H     2.56233   -1.30148   -8.27371
       O     2.24641   -2.21092   -8.52184
      H1     1.84243   -2.10786   -9.38131

