57
frame 9 | Written by MDAnalysis XYZWriter (release 2.4.3)
       H     6.86616    9.74833   10.69552
       O     7.08604    8.78844   10.51427
      H1     6.91875    8.70120    9.55588
       H    10.74096    9.46301   11.30462
       O    11.06388   10.34781   11.57889
      H1    11.33314   10.79551   10.78918
       H     5.34236    6.93000   12.99559
       O     6.06676    6.73847   12.37175
      H1     6.76572    7.41490   12.46461
       H     7.04813    7.48610    6.49139
       O     6.59496    7.96467    7.21779
      H1     6.36249    8.82953    6.87082
       H     6.22736    6.40554    8.00260
       O     6.14320    5.60930    8.53716
      H1     5.39729    5.75913    9.08292
       H     6.12542    3.64629   13.84116
       O     6.78190    4.36659   13.88877
      H1     6.47298    5.12201   13.32928
       H     9.81725    7.23408   10.21212
       O     9.74388    8.19966   10.11286
      H1     8.76680    8.33703   10.10392
       H     5.85489   11.95967   11.44015
       O     6.48340   11.28688   11.58920
      H1     7.27682   11.78246   11.76961
       H     9.25983   12.63378   13.07654
       O     9.28587   12.27569   12.17475
      H1     9.84474   11.54638   12.09677
       H    10.51993    7.85549    8.15431
       O    11.30678    7.46122    7.75196
      H1    11.12348    6.61559    7.36493
       H     7.69556   10.65552    7.70893
       O     6.85352   11.05070    7.74385
      H1     6.90320   11.73722    8.41118
       H     3.56407    8.65747   11.80676
       O     4.11603    9.41078   11.98872
      H1     4.99372    9.06551   12.35337
       H     3.03825    7.68516    8.91387
       O     2.40963    7.92394    8.22671
      H1     2.92612    8.61715    7.79960
       H     3.38726    6.41624   10.74865
       O     4.04599    7.00309   10.30089
      H1     4.81165    7.00342   10.91872
       H    10.35368    4.76270   10.62474
       O    10.44536    5.52166   11.19744
      H1    11.41114    5.69501   11.23510
       H     7.51175    9.92957   14.40177
       O     6.69771    9.66250   13.95143
      H1     6.67943   10.30264   13.20224
       H     3.70944   10.97134   13.10942
       O     3.11889   11.39245   13.78025
      H1     3.68397   12.08667   14.21479
       H     1.94031   11.41197   10.08726
       O     2.88426   11.38915   10.24072
      H1     3.02346   10.41849   10.38186
       H     6.66504    4.21884    9.92148
       O     6.91239    3.53408   10.55863
      H1     7.11678    4.04659   11.32194

