57
frame 9 | Written by MDAnalysis XYZWriter (release 2.4.3)
       H     2.96835   13.55846   -5.29287
       O     3.92120   13.71502   -5.19280
      H1     4.20911   14.44237   -5.81457
       H     2.74667   17.63090   -3.76593
       O     2.55139   17.56820   -2.85307
      H1     1.69617   18.01916   -2.89637
       H     8.00557   12.67973   -5.63987
       O     8.69577   13.10663   -5.10507
      H1     8.34589   13.87778   -4.68153
       H     1.05512   15.05063   -6.40781
       O     0.95688   15.37132   -7.30849
      H1     0.97367   14.58236   -7.88145
       H     2.24849    9.84322   -6.01272
       O     1.77223   10.60829   -6.38346
      H1     1.02253   10.31862   -6.91699
       H     4.37850   16.62477   -7.54369
       O     4.65874   15.94809   -6.88364
      H1     5.65488   16.15061   -6.79804
       H     4.70312   11.84669   -4.65088
       O     5.17305   11.03043   -4.73966
      H1     4.41770   10.38101   -4.62744
       H     6.24157   13.96884   -7.94848
       O     6.24837   13.23980   -7.24797
      H1     5.30272   13.03947   -7.06149
       H     7.36600   15.06311   -2.34516
       O     7.79639   15.25259   -3.14648
      H1     7.67099   16.23078   -3.24920
       H     6.63314    9.52253   -7.20588
       O     7.07872    9.88256   -6.40241
      H1     6.26912   10.12758   -6.00722
       H     3.30369   18.17749   -6.29326
       O     3.29285   18.63591   -5.44688
      H1     4.23236   18.73672   -5.20251
       H     0.78229   13.25833   -9.90768
       O     1.46100   13.36075   -9.16996
      H1     2.06548   14.00412   -9.55314
       H     2.91211   18.49803   -8.71330
       O     3.78645   18.16512   -8.40244
      H1     4.34055   19.00646   -8.23871
       H     3.37438   14.56710   -2.13763
       O     3.92655   13.93641   -2.63215
      H1     3.87042   14.15835   -3.55448
       H     7.02621   17.86971   -7.66129
       O     7.21073   17.12926   -7.03978
      H1     7.12723   17.53519   -6.12393
       H     1.00464   13.24307   -4.21796
       O     1.32442   13.33254   -5.18009
      H1     1.39163   12.48581   -5.62664
       H     7.31668   12.11880   -7.93797
       O     8.19421   12.01543   -8.30597
      H1     8.47102   11.12729   -8.25496
       H     3.65827   11.28401   -1.10962
       O     3.11292   11.52429   -1.89750
      H1     3.58557   12.26206   -2.27592
       H     1.05965   17.24586   -7.47789
       O     0.87783   18.14853   -7.68186
      H1     0.33790   18.18906   -8.49191

