57
frame 9 | Written by MDAnalysis XYZWriter (release 2.4.3)
       H    -3.45316   14.04584  -10.55764
       O    -3.42946   13.06415  -10.43220
      H1    -3.93176   12.69302  -11.16613
       H    -3.34916   17.13771  -12.70616
       O    -3.48444   17.94173  -13.18050
      H1    -2.93192   17.86499  -13.98055
       H    -0.74839   19.01868  -10.71632
       O    -0.68085   18.79358   -9.78900
      H1    -1.59322   18.68273   -9.51624
       H    -6.43381   15.21977  -11.91713
       O    -6.68489   15.47285  -11.01175
      H1    -5.84893   15.60747  -10.53205
       H    -9.10090   17.02799  -13.04269
       O    -8.96846   17.19878  -12.08929
      H1    -8.44967   16.42333  -11.83397
       H    -6.18465   11.51936   -8.48580
       O    -5.31499   11.91513   -8.11902
      H1    -4.82846   12.28856   -8.87132
       H    -5.10494   11.23370  -12.94007
       O    -4.83136   11.87418  -12.28035
      H1    -5.42667   12.63449  -12.54773
       H    -8.73202   17.53829   -6.77537
       O    -8.82568   16.55156   -6.96579
      H1    -7.91205   16.40927   -7.11967
       H    -3.46036   16.81478   -4.29360
       O    -4.32046   17.33695   -4.27223
      H1    -4.44351   17.45057   -3.30674
       H    -4.96297   15.66665   -8.87318
       O    -4.11816   15.63848   -9.47954
      H1    -3.89811   16.58780   -9.47088
       H    -6.28769   15.01384   -6.97712
       O    -6.08923   15.93781   -7.32788
      H1    -5.29775   16.24584   -6.93618
       H    -6.15491   12.95392   -6.89768
       O    -6.85214   13.50213   -6.45076
      H1    -7.70047   13.42315   -6.95440
       H    -3.73486   19.60249   -6.15074
       O    -3.85142   18.69201   -6.48865
      H1    -4.06522   18.27021   -5.64559
       H    -1.85085   14.24898   -5.61603
       O    -2.18913   14.81867   -6.31958
      H1    -1.40893   15.40358   -6.53692
       H    -2.18001   15.17881  -12.78465
       O    -2.65643   15.72872  -12.12405
      H1    -2.02369   15.74964  -11.33463
       H    -2.42161   13.32215   -8.85546
       O    -1.69657   13.09383   -8.22020
      H1    -1.89318   13.71728   -7.48488
       H    -0.14829   15.22825  -10.08616
       O    -0.57793   15.97232  -10.52012
      H1    -0.42054   16.74709   -9.96192
       H   -10.53433   14.08319  -10.31353
       O    -9.63989   13.70605  -10.32785
      H1    -9.04706   14.42231  -10.48915
       H    -3.66971   18.97497   -9.71304
       O    -3.21373   18.32764   -9.14979
      H1    -3.59694   18.48705   -8.25089

