57
frame 9 | Written by MDAnalysis XYZWriter (release 2.4.3)
       H     8.18813   -8.84044  -12.62827
       O     7.48624   -9.51505  -12.83755
      H1     7.88286  -10.13260  -13.48506
       H     7.15550   -6.36864  -12.46024
       O     8.08116   -6.28091  -12.24511
      H1     8.08461   -6.04464  -11.34170
       H     8.76157   -5.52144  -15.26222
       O     8.22064   -4.88296  -15.76156
      H1     7.68993   -4.48010  -15.06658
       H    11.71033   -9.55208  -11.42694
       O    11.77997   -8.94166  -10.71951
      H1    12.24495   -8.10321  -11.02384
       H     7.21973   -9.61688  -10.45486
       O     6.93828   -9.01162   -9.74793
      H1     7.69768   -8.66708   -9.32917
       H     9.79187   -9.96595  -15.55226
       O    10.32959   -9.51553  -16.25860
      H1     9.76169   -8.78605  -16.50294
       H     7.01222   -4.49788  -13.26904
       O     6.61015   -3.74878  -13.73434
      H1     5.71486   -4.08907  -13.95626
       H     6.99546   -9.01000  -14.61320
       O     7.03027   -8.82775  -15.53386
      H1     6.46369   -8.03225  -15.58621
       H     3.95428  -10.12359  -12.91372
       O     3.68414  -10.84316  -13.46791
      H1     2.73616  -10.73892  -13.33216
       H     7.07580   -9.68738  -17.19637
       O     7.36849   -9.71863  -18.13270
      H1     7.70944   -8.84472  -18.24360
       H    10.54802  -11.66403  -12.03119
       O    11.15545  -11.00225  -12.38068
      H1    11.94315  -11.55676  -12.55417
       H     6.36203  -11.50456   -7.95083
       O     6.96722  -10.84109   -7.79547
      H1     6.89530  -10.25549   -8.56925
       H     3.44678   -8.06280  -13.28796
       O     3.88302   -8.30627  -12.44042
      H1     3.21747   -7.98329  -11.89304
       H     4.75033   -5.47994  -12.09969
       O     5.30935   -6.05003  -12.57859
      H1     4.84388   -6.91988  -12.46111
       H    10.62919   -6.84225  -14.19745
       O     9.70837   -6.68519  -14.33629
      H1     9.39871   -6.42370  -13.51868
       H     7.36410  -13.34930  -14.14227
       O     7.73930  -13.22676  -13.27794
      H1     7.91499  -14.14130  -12.97890
       H    10.19489  -10.78464  -13.97699
       O     9.24041  -10.96284  -14.37673
      H1     9.13593  -11.85094  -14.03276
       H     9.36969   -5.15425   -9.78813
       O     8.45574   -5.37144   -9.55746
      H1     8.07172   -4.51396   -9.28467
       H     5.01336   -6.98335   -8.57476
       O     4.68696   -7.36723   -9.34955
      H1     5.23116   -8.00495   -9.73774

