57
frame 9 | Written by MDAnalysis XYZWriter (release 2.4.3)
       H   -16.23476    5.35989    7.24994
       O   -15.62857    5.12177    6.49833
      H1   -14.69510    4.99842    6.82446
       H    -8.90791    8.25889    6.38607
       O    -8.33665    7.55032    6.78540
      H1    -8.98290    7.13344    7.40673
       H   -13.25011   10.43496    6.66657
       O   -12.45193   10.45869    7.23711
      H1   -12.69201    9.98542    8.07176
       H   -11.66572    7.35533    8.55038
       O   -11.38485    6.52437    8.09062
      H1   -11.43112    6.67652    7.12123
       H   -13.27521    1.98543    9.50613
       O   -12.60917    2.41759    8.90031
      H1   -12.43081    1.67021    8.29655
       H   -14.75431    7.91270   10.05737
       O   -14.21299    8.38547   10.69866
      H1   -14.80798    8.97023   11.16715
       H    -9.74268    4.45677    4.78858
       O    -9.22393    4.55098    3.99218
      H1    -8.40266    3.98711    4.13021
       H   -11.25171    4.06188    6.66020
       O   -10.36166    3.75632    6.47596
      H1    -9.72956    4.14902    7.13550
       H    -8.72435    8.14993   10.23017
       O    -9.16947    8.84830   10.69178
      H1    -8.69021    8.99721   11.53603
       H   -11.10613    9.67529    6.36568
       O   -10.38074    9.27460    5.87198
      H1   -10.50672    9.43078    4.94344
       H    -9.12479    6.04404    3.15952
       O    -9.08003    6.97288    2.78496
      H1    -8.10599    7.24302    2.67320
       H   -10.92036    7.71841    5.53449
       O   -11.48499    6.85662    5.49039
      H1   -12.39601    7.25872    5.37200
       H    -8.31218    4.83465    9.00040
       O    -8.26470    3.99027    8.51486
      H1    -7.53718    4.06753    7.94813
       H    -5.83880    7.98464    5.15016
       O    -6.65064    7.65943    4.63864
      H1    -7.34981    7.56239    5.34488
       H    -9.29447    9.95430    3.15500
       O   -10.12602    9.43195    3.29686
      H1    -9.80516    8.50481    3.27107
       H   -13.83877    6.35516    4.40463
       O   -14.16685    6.86824    5.14060
      H1   -14.65641    6.19352    5.66353
       H    -9.00312    5.99149   10.67510
       O    -8.47819    6.32316    9.89424
      H1    -7.53869    6.14023   10.22682
       H   -12.34390    8.28791   10.18971
       O   -11.62770    8.71455    9.64834
      H1   -10.84737    8.74247   10.21763
       H   -12.64290    5.30978    7.62670
       O   -13.15059    4.56987    7.26913
      H1   -13.07232    3.89573    7.97227

