57
frame 9 | Written by MDAnalysis XYZWriter (release 2.4.3)
       H   -16.23476    5.35989    7.24994
       O   -15.62857    5.12177    6.49833
      H1   -14.69510    4.99842    6.82446
       H   -12.10725    1.40119   12.15945
       O   -12.39145    0.65406   12.70076
      H1   -11.95970    0.76021   13.58342
       H   -13.27521    1.98543    9.50613
       O   -12.60917    2.41759    8.90031
      H1   -12.43081    1.67021    8.29655
       H   -11.25171    4.06188    6.66020
       O   -10.36166    3.75632    6.47596
      H1    -9.72956    4.14902    7.13550
       H   -14.85490    1.34337   11.44352
       O   -14.59710    2.10540   10.96575
      H1   -15.20883    2.05798   10.20889
       H   -12.09556   -0.50478    5.02914
       O   -11.18321   -0.56865    4.71920
      H1   -10.67048   -0.14296    5.45903
       H    -9.03635    2.60330    9.71605
       O    -9.17241    2.04687   10.48478
      H1    -9.90928    2.38358   11.02301
       H   -16.96542    1.75625    8.42176
       O   -16.73645    1.39165    9.32315
      H1   -16.15164    0.60277    9.13247
       H   -14.46956   -1.52552    4.98978
       O   -14.18118   -0.68197    5.28873
      H1   -14.92039   -0.10644    4.97754
       H   -10.68911   -3.57795    7.34934
       O   -11.36760   -2.92580    6.96845
      H1   -11.10205   -2.67251    6.06934
       H    -9.26263    4.84042   12.67016
       O    -9.88266    5.12762   11.95758
      H1   -10.33842    4.36579   11.64457
       H   -12.73003   -0.87640   11.57476
       O   -12.78416   -1.58696   10.89801
      H1   -13.64645   -1.47252   10.48721
       H    -8.31218    4.83465    9.00040
       O    -8.26470    3.99027    8.51486
      H1    -7.53718    4.06753    7.94813
       H   -10.04994    1.61384    6.65097
       O    -9.89457    0.71234    6.85164
      H1   -10.13430    0.64555    7.81312
       H   -11.96064   -0.49430    7.81122
       O   -12.83267   -0.02484    7.71891
      H1   -13.20180   -0.22890    6.89436
       H   -14.10629   -0.46956    8.66187
       O   -14.93677   -0.82724    9.08971
      H1   -15.08043   -1.58707    8.52948
       H   -12.22032    3.36255   11.24859
       O   -11.46325    2.99688   11.68894
      H1   -11.51917    3.24472   12.61094
       H   -11.40668   -0.76582   10.04057
       O   -10.67187   -0.41237    9.48700
      H1   -10.47852    0.47101    9.87819
       H   -12.64290    5.30978    7.62670
       O   -13.15059    4.56987    7.26913
      H1   -13.07232    3.89573    7.97227

