57
frame 9 | Written by MDAnalysis XYZWriter (release 2.4.3)
       H     7.15550   -6.36864  -12.46024
       O     8.08116   -6.28091  -12.24511
      H1     8.08461   -6.04464  -11.34170
       H     8.76157   -5.52144  -15.26222
       O     8.22064   -4.88296  -15.76156
      H1     7.68993   -4.48010  -15.06658
       H     3.56565   -4.47855   -9.31638
       O     3.02223   -5.01870   -9.95964
      H1     3.59084   -5.79989   -9.97121
       H     2.66909   -9.74163   -9.10929
       O     2.61515   -8.79609   -8.92179
      H1     3.53001   -8.41158   -8.98010
       H     5.34388   -3.10215   -8.39341
       O     4.48182   -3.45462   -8.12531
      H1     3.77269   -2.84299   -8.47691
       H     5.59305   -6.22401  -16.88473
       O     5.46764   -6.69752  -16.01483
      H1     5.37034   -5.99971  -15.31167
       H     7.01222   -4.49788  -13.26904
       O     6.61015   -3.74878  -13.73434
      H1     5.71486   -4.08907  -13.95626
       H     7.76143   -2.35491   -8.46887
       O     7.02776   -2.84462   -8.82400
      H1     6.82433   -2.45730   -9.67422
       H     1.78919   -3.02545  -12.22891
       O     2.68010   -3.10214  -11.88173
      H1     2.61308   -3.86851  -11.33383
       H     1.76677   -8.07425  -10.41563
       O     1.61602   -7.50042  -11.18802
      H1     0.67901   -7.45616  -11.40860
       H     6.99546   -9.01000  -14.61320
       O     7.03027   -8.82775  -15.53386
      H1     6.46369   -8.03225  -15.58621
       H     3.44678   -8.06280  -13.28796
       O     3.88302   -8.30627  -12.44042
      H1     3.21747   -7.98329  -11.89304
       H     4.75033   -5.47994  -12.09969
       O     5.30935   -6.05003  -12.57859
      H1     4.84388   -6.91988  -12.46111
       H     2.39157   -7.96937  -15.22258
       O     2.06774   -7.62104  -14.36135
      H1     2.27133   -6.66181  -14.29460
       H     2.61048   -4.05512  -14.89269
       O     1.82444   -4.62139  -14.84301
      H1     1.28979   -4.05835  -15.43594
       H     6.01257   -1.46959  -11.31455
       O     6.70711   -2.12360  -11.50561
      H1     6.60095   -2.50171  -12.37796
       H     3.55711   -2.12270  -15.01767
       O     3.92430   -2.94147  -14.58361
      H1     3.60058   -2.90675  -13.65948
       H     9.36969   -5.15425   -9.78813
       O     8.45574   -5.37144   -9.55746
      H1     8.07172   -4.51396   -9.28467
       H     5.01336   -6.98335   -8.57476
       O     4.68696   -7.36723   -9.34955
      H1     5.23116   -8.00495   -9.73774

