57
frame 9 | Written by MDAnalysis XYZWriter (release 2.4.3)
       H    12.40085    9.55473  -13.54718
       O    12.65683   10.27905  -14.14831
      H1    12.85531   10.95529  -13.55279
       H    12.92700   12.80723  -16.31428
       O    13.74226   13.30984  -16.40832
      H1    14.31117   13.07930  -15.67603
       H    17.24324   15.95280  -16.40700
       O    17.16691   15.44739  -15.51609
      H1    16.70655   14.62669  -15.65058
       H    11.15052   14.16852  -19.79682
       O    10.33670   14.68954  -19.73476
      H1    10.34723   15.09148  -18.88403
       H    12.96820    5.49953  -16.31323
       O    13.67589    6.04465  -16.53686
      H1    14.43051    5.59250  -16.19626
       H    18.62785   14.68609  -14.53152
       O    19.25413   13.97696  -14.32279
      H1    18.69757   13.19029  -14.19897
       H    16.11728    9.75038  -15.82509
       O    16.72131   10.37376  -16.25457
      H1    17.44242    9.98551  -16.77070
       H    14.66791    7.91472  -15.72364
       O    14.91402    8.69479  -15.21220
      H1    14.15520    9.25721  -15.09613
       H    18.83713    9.43645  -18.66812
       O    18.70442    9.60405  -17.73143
      H1    19.55522    9.91415  -17.41080
       H    16.49353   12.01549  -15.61577
       O    16.22848   12.82241  -15.13073
      H1    16.27249   12.46675  -14.24402
       H    12.99572   15.05899  -16.01346
       O    12.44916   15.86524  -15.95247
      H1    12.29776   16.18942  -16.88789
       H     9.83664   11.30725  -19.69910
       O    10.03496   10.54881  -19.10706
      H1    10.93713   10.28521  -19.24450
       H    14.17017   12.34749  -17.90230
       O    14.44635   11.94116  -18.71748
      H1    15.32046   11.62229  -18.59705
       H    18.75971    6.37572  -16.95128
       O    17.88437    6.82210  -16.69187
      H1    17.91762    7.73336  -17.02199
       H    13.67989    6.93242  -18.64921
       O    13.04918    7.21150  -19.32439
      H1    12.79199    6.38797  -19.74180
       H    10.61949   12.86598  -17.01457
       O    11.34293   12.19338  -17.16453
      H1    10.82384   11.58848  -17.69217
       H    18.03522   11.48520  -13.42196
       O    18.64545   11.29857  -14.13398
      H1    18.10913   10.80352  -14.76362
       H    15.77996   15.25782  -19.00359
       O    16.54377   15.38451  -18.40667
      H1    16.86383   14.45610  -18.27510
       H    13.22531   10.54541  -18.86702
       O    12.64980    9.93179  -19.30548
      H1    13.07381    9.09054  -19.40660

