57
frame 9 | Written by MDAnalysis XYZWriter (release 2.4.3)
       H    17.23565   15.69308    2.78699
       O    17.47033   15.72255    1.84902
      H1    17.53022   14.76609    1.70598
       H    15.51639   13.08392    4.86927
       O    16.34230   12.77203    4.42827
      H1    16.54104   11.92426    4.89205
       H    17.68935   13.89729   -5.04960
       O    16.84651   14.11123   -4.64444
      H1    16.38281   13.23766   -4.65224
       H    15.90793   11.45613   -3.99481
       O    15.28099   12.01488   -4.48881
      H1    14.43719   11.96082   -4.01991
       H    18.79201   17.44990   -3.63498
       O    19.19034   16.57696   -3.85471
      H1    18.75110   15.90516   -3.28311
       H    17.83139   11.32932   -2.87352
       O    17.28090   10.63594   -3.22493
      H1    16.61086   10.49613   -2.55949
       H    17.06269   12.66573    2.79127
       O    17.06159   12.84834    1.86375
      H1    16.19047   12.73148    1.51808
       H    19.51144    9.56210    2.67478
       O    19.60722    9.80599    3.62431
      H1    19.75628    8.97176    4.05025
       H    18.09095    9.97500    4.49617
       O    17.22171    9.98970    4.91162
      H1    16.89665    9.05997    4.81047
       H    18.67314    9.82374    0.44506
       O    19.29888    9.16068    0.90730
      H1    18.89428    8.25883    0.95040
       H    16.70062   17.12287    1.03657
       O    16.42128   17.98016    0.74309
      H1    15.83335   17.75605   -0.02816
       H    18.87512   12.35531   -0.29971
       O    18.29796   11.63151   -0.04436
      H1    17.83864   12.00179    0.69456
       H    18.58847    9.26569   -3.50221
       O    18.97240    8.49904   -3.97624
      H1    18.19694    7.96885   -4.24941
       H    19.19489   14.05494    5.81745
       O    18.59534   14.32918    5.04328
      H1    18.00093   13.54497    4.90455
       H    16.21993    7.46807   -0.59675
       O    15.31790    7.51272   -1.00772
      H1    15.32593    7.17248   -1.89587
       H    14.14144   10.43516   -1.95056
       O    15.04170   10.20813   -1.71392
      H1    14.98593    9.27447   -1.40152
       H    14.23116   12.96692    0.12115
       O    14.90671   12.27926    0.31888
      H1    15.23229   11.76542   -0.43469
       H    14.71736   10.97251    1.87183
       O    14.67140   10.30075    2.53803
      H1    15.53457   10.08253    2.89516
       H    17.59548    5.84749   -0.44240
       O    17.79285    6.78163   -0.28744
      H1    18.50840    7.00278   -0.94637

