57
frame 8 | Written by MDAnalysis XYZWriter (release 2.4.3)
       H   -12.02441   10.63675    3.64991
       O   -12.67313   11.11823    4.19485
      H1   -13.17363   11.70859    3.55867
       H   -15.84431    5.52257   -2.76793
       O   -14.88272    5.50990   -2.64024
      H1   -14.55823    6.40717   -2.79273
       H   -13.32453    9.37323   -0.32638
       O   -12.66362    9.15717   -1.01469
      H1   -12.51239    8.25065   -0.78491
       H   -15.00336    8.36582   -3.45534
       O   -14.04960    8.15452   -3.36714
      H1   -13.73143    8.53914   -2.52449
       H    -9.66708   10.86227   -0.92187
       O    -9.16110   11.26844   -0.13544
      H1    -9.00085   12.17436   -0.42770
       H    -8.79900    7.79540    1.50980
       O    -9.45129    8.09304    0.80906
      H1    -9.05391    8.83091    0.46377
       H   -13.02485   13.22033    2.22005
       O   -13.86737   12.73373    2.29162
      H1   -14.03912   12.48438    1.33903
       H   -14.24755   13.11214   -2.43133
       O   -13.92535   12.35011   -1.95877
      H1   -14.63957   11.72114   -2.03067
       H   -11.79800   11.46467   -3.84273
       O   -12.14025   11.66347   -4.71770
      H1   -13.09996   11.60069   -4.67294
       H   -14.62193   10.01937    1.44567
       O   -14.38856   10.41811    0.54916
      H1   -15.20082   10.50965    0.07058
       H    -9.83291   10.59059    2.87369
       O   -10.60343   10.00635    2.76119
      H1   -10.15640    9.39644    2.14097
       H   -11.00130   12.06091   -0.73005
       O   -11.74829   12.31471   -0.21552
      H1   -12.54052   12.47717   -0.77057
       H   -13.47963    7.38260    1.87713
       O   -14.23482    7.99326    2.07952
      H1   -15.04250    7.57048    1.72957
       H   -18.74055    8.70923   -0.59870
       O   -17.81246    8.70369   -0.82654
      H1   -17.62931    8.43693   -1.72029
       H    -9.86631   10.11087   -2.64011
       O   -10.54637   10.72804   -2.28059
      H1   -11.13158   10.08145   -1.84229
       H   -11.80006    5.94634    0.37767
       O   -11.41908    6.59964   -0.19674
      H1   -10.70230    7.08032    0.31974
       H    -9.45310    5.89110   -2.47170
       O    -9.76394    6.77276   -2.39121
      H1   -10.34927    6.71101   -1.68092
       H   -17.00278   10.56956   -1.58355
       O   -16.33710   11.25822   -1.37900
      H1   -16.80635   12.09690   -1.48503
       H   -15.69094    6.14091    0.36875
       O   -16.19794    6.87088    0.76864
      H1   -16.53336    7.34422   -0.03700

