57
frame 10 | Written by MDAnalysis XYZWriter (release 2.4.3)
       H    18.20411   18.65221  -17.08773
       O    18.95890   18.20905  -17.43446
      H1    19.00969   18.44551  -18.35995
       H    16.95728   15.09942  -16.85497
       O    17.15706   15.05201  -15.88507
      H1    16.68538   14.24933  -15.64452
       H    14.85863   19.19445  -19.14981
       O    15.46634   18.64418  -18.58465
      H1    16.26439   19.07050  -18.93625
       H    19.60737   16.70965  -11.24786
       O    19.10769   17.13382  -10.52642
      H1    19.87784   17.14082   -9.90613
       H    16.35435   16.69320   -8.90709
       O    16.95821   16.10641   -8.41023
      H1    17.54718   15.68514   -9.08059
       H    16.61958   16.20303  -14.27109
       O    16.35635   16.96548  -13.80126
      H1    15.39281   17.22489  -13.90175
       H    12.69381   18.87125  -12.70256
       O    12.41292   18.22184  -12.06103
      H1    12.11639   17.55782  -12.68514
       H    18.66518   14.75229  -14.89716
       O    19.44831   14.30922  -14.49801
      H1    19.06010   13.48788  -14.21384
       H    17.36294   17.11039  -10.80421
       O    16.38094   17.08743  -10.91137
      H1    16.20336   16.84809  -11.78909
       H    13.92886   18.93233  -17.06549
       O    13.38713   19.70486  -16.81342
      H1    12.43876   19.49839  -16.83767
       H    16.08570   12.14944  -15.50869
       O    15.74398   12.78010  -14.88702
      H1    15.89292   12.33068  -14.04877
       H    12.76197   15.12390  -16.40962
       O    12.46281   15.99950  -16.27967
      H1    12.35507   16.31762  -17.18662
       H    11.25547   16.11922  -14.66929
       O    11.20029   16.47353  -13.82327
      H1    10.26885   16.40225  -13.54951
       H    17.14237   18.70117  -14.55406
       O    17.29095   19.46108  -15.20245
      H1    18.23414   19.60851  -15.11071
       H    14.08551   18.88131   -9.21581
       O    15.07915   18.78451   -9.11850
      H1    15.39933   18.36229   -9.95671
       H    18.89490   13.52210  -10.50058
       O    18.91778   14.29018   -9.85932
      H1    19.51559   14.92499  -10.28452
       H    10.22058   19.31859  -15.44390
       O    11.05095   19.34612  -14.97357
      H1    11.14095   18.47024  -14.54411
       H    13.68209   18.72549  -15.01220
       O    13.84698   18.00768  -14.44594
      H1    13.65207   17.21204  -14.99565
       H    16.89268   15.23456  -19.34481
       O    17.34631   14.60732  -18.75499
      H1    18.31066   14.79634  -18.66921

