57
frame 10 | Written by MDAnalysis XYZWriter (release 2.4.3)
       H     5.59117   -8.61904    1.94003
       O     6.08272   -7.87633    1.54173
      H1     5.60576   -7.81480    0.70953
       H     1.87179   -9.00197    0.44579
       O     2.28230   -9.08656   -0.42633
      H1     3.07691   -8.53304   -0.35983
       H     3.85361   -4.82434   -5.01299
       O     4.66661   -5.24060   -4.70124
      H1     5.05590   -5.41305   -5.55659
       H     1.59808   -8.04298   -3.66101
       O     2.44573   -7.62807   -3.50543
      H1     2.68161   -7.41826   -4.41493
       H     6.75676   -6.01873    0.53516
       O     7.00921   -5.55254   -0.30127
      H1     7.18254   -4.69430    0.07904
       H     6.28744  -10.78097    1.71243
       O     6.79270  -11.51000    1.36761
      H1     7.37925  -11.04258    0.72465
       H     4.18791   -5.05489   -2.84044
       O     3.61876   -5.40765   -2.14561
      H1     3.10115   -6.06995   -2.59887
       H     5.19818   -5.22579    3.41725
       O     5.93401   -5.91720    3.44573
      H1     5.73928   -6.57886    2.75767
       H     8.56778   -9.75805   -0.77830
       O     8.67329  -10.59406   -0.30753
      H1     8.91638  -11.24035   -0.95830
       H     7.58157  -13.21844   -1.38306
       O     6.68507  -13.30640   -1.18999
      H1     6.50593  -12.74239   -0.39031
       H     0.63537   -6.27659   -0.83338
       O     0.38895   -7.13959   -1.09338
      H1     1.04743   -7.75899   -0.92648
       H     2.34115  -12.01879   -1.39362
       O     2.65058  -12.42084   -0.56532
      H1     3.02683  -11.69005   -0.08818
       H     6.33792   -4.18770   -1.83733
       O     6.36876   -3.29087   -2.24780
      H1     6.79819   -3.42086   -3.10463
       H     5.09140   -8.33732   -1.49274
       O     4.62165   -7.71283   -0.91199
      H1     4.44982   -6.92651   -1.48715
       H     9.53639   -7.48730   -0.40460
       O     8.58467   -7.72299   -0.38826
      H1     8.14463   -6.90217   -0.61010
       H     4.43426   -9.58099   -4.67963
       O     4.00691  -10.10134   -3.98737
      H1     3.32525   -9.46846   -3.75252
       H     6.95406   -9.43842   -7.11390
       O     6.47395   -9.04335   -6.41077
      H1     6.95025   -9.38685   -5.65634
       H     8.23493   -8.69392   -3.73696
       O     7.73377   -9.48191   -4.10023
      H1     7.16221   -9.85027   -3.39412
       H     5.99929  -11.27659   -1.91282
       O     5.94986  -10.40385   -2.22625
      H1     5.11469  -10.36407   -2.71070

