57
frame 0 | Written by MDAnalysis XYZWriter (release 2.4.3)
       H   -15.65887    0.50158   -6.25144
       O   -15.08761   -0.20930   -6.62470
      H1   -14.55079    0.16609   -7.28327
       H   -17.04082   -2.16456  -11.01205
       O   -16.30113   -1.67590  -11.46378
      H1   -15.58068   -2.24331  -11.72559
       H   -18.31243   -4.90855   -6.54089
       O   -18.97043   -5.32564   -5.98640
      H1   -19.09928   -4.84876   -5.13723
       H   -14.52078    0.38572   -9.70044
       O   -14.17082   -0.47650  -10.01860
      H1   -14.92343   -0.89125  -10.49388
       H   -12.60179   -5.56523  -10.72816
       O   -13.07536   -4.83854  -10.30646
      H1   -12.40491   -4.39330   -9.67491
       H   -14.23965   -4.93799   -3.65149
       O   -15.19109   -5.00493   -3.96666
      H1   -15.19186   -5.75945   -4.60588
       H   -14.99600   -4.87220  -10.10746
       O   -15.91248   -5.08052  -10.07671
      H1   -16.19310   -4.64046   -9.25064
       H   -14.54214   -1.98039   -6.33146
       O   -14.35987   -2.93994   -6.43792
      H1   -13.80041   -2.94474   -7.22457
       H   -14.85944   -3.23187   -3.63781
       O   -15.07392   -2.46083   -3.06084
      H1   -14.38602   -1.79611   -3.29291
       H   -15.69090   -3.86716   -7.12827
       O   -16.52029   -4.19100   -7.52051
      H1   -17.13832   -3.43848   -7.46286
       H   -18.82267   -1.69665   -7.41782
       O   -17.88140   -1.89214   -7.51420
      H1   -17.36405   -1.08260   -7.50420
       H   -19.24071   -7.58145   -9.56021
       O   -18.60364   -8.24372   -9.19133
      H1   -18.30514   -7.95493   -8.31824
       H   -18.08219   -2.59669   -5.59136
       O   -18.18876   -2.38285   -4.66882
      H1   -17.27767   -2.54703   -4.29774
       H   -19.21138   -1.22114  -10.44881
       O   -18.61112   -2.00109  -10.21016
      H1   -18.27034   -1.93764   -9.33033
       H   -16.42083   -7.34768   -6.09618
       O   -15.56875   -7.03425   -5.70385
      H1   -15.22932   -6.54847   -6.47268
       H   -13.49931   -5.73436   -8.56561
       O   -13.53589   -6.52051   -7.95618
      H1   -12.71216   -6.36303   -7.41940
       H   -11.49590   -3.04164   -7.50004
       O   -11.98368   -2.86745   -8.33004
      H1   -11.37216   -2.48630   -8.92543
       H   -17.72018   -6.58382  -12.59719
       O   -16.75529   -6.48259  -12.44710
      H1   -16.57402   -5.68082  -11.90890
       H   -18.40544   -8.99292   -6.18430
       O   -18.10585   -8.09127   -6.29927
      H1   -18.69151   -7.50622   -5.84561

