57
frame 10 | Written by MDAnalysis XYZWriter (release 2.4.3)
       H   -18.23528   12.32867   -8.96235
       O   -18.35041   11.35197   -8.77259
      H1   -19.24938   11.11338   -9.03627
       H   -14.42976   12.20572  -10.03691
       O   -14.72973   12.42983   -9.12129
      H1   -15.33051   13.16944   -9.18369
       H   -13.92275   12.03509  -12.27202
       O   -14.22318   11.25393  -11.66297
      H1   -15.20701   11.36014  -11.63435
       H   -15.85336   16.73074  -12.04080
       O   -16.16957   17.55971  -12.51294
      H1   -16.62923   18.19334  -11.93802
       H   -14.04100    8.23018  -11.49139
       O   -13.62178    8.75859  -12.17851
      H1   -13.77490    9.70612  -12.07450
       H   -16.44090   17.88829  -14.31770
       O   -16.40509   17.67192  -15.28198
      H1   -17.01148   18.37094  -15.67269
       H   -17.02610   13.27265  -12.47396
       O   -17.76454   13.22431  -11.84064
      H1   -18.13813   14.04440  -12.01110
       H   -12.90784   13.85585  -13.65760
       O   -13.62578   13.26369  -13.47863
      H1   -14.40714   13.70525  -13.81965
       H   -17.22388   13.56587  -10.23009
       O   -17.05486   13.80064   -9.33546
      H1   -17.11518   14.73237   -9.16134
       H   -14.83406   15.71759  -10.39428
       O   -14.95339   15.36279  -11.34434
      H1   -14.12351   14.98656  -11.70133
       H   -13.55721   13.67931  -17.04088
       O   -14.39922   14.24053  -16.95383
      H1   -14.82756   14.19093  -17.78983
       H   -17.34923    7.92592  -15.50609
       O   -16.53785    8.25402  -15.87267
      H1   -16.51943    9.18866  -15.69483
       H   -16.17941   12.07424  -15.45108
       O   -15.85524   11.14339  -15.40811
      H1   -15.24979   11.06812  -14.65023
       H   -18.96286   13.61539  -15.91562
       O   -18.35991   13.56743  -16.68804
      H1   -18.56700   12.81525  -17.23885
       H   -15.60201   17.32319   -8.88938
       O   -15.04123   16.48792   -8.82161
      H1   -15.38277   15.92722   -8.15376
       H   -17.92523   16.66198  -12.27438
       O   -18.59648   15.95360  -12.31936
      H1   -18.84970   15.80698  -13.24993
       H   -15.84167   14.17004  -15.24581
       O   -16.34203   13.79551  -14.51490
      H1   -17.09675   13.51288  -14.97360
       H   -17.33224   10.25258   -9.94578
       O   -16.96536    9.83369  -10.78280
      H1   -17.06239    8.87467  -10.74908
       H   -15.36877    9.18953   -8.99491
       O   -15.47594    9.81457   -8.28288
      H1   -15.38934   10.71399   -8.54272

