57
frame 10 | Written by MDAnalysis XYZWriter (release 2.4.3)
       H   -16.80619    6.41310   10.24300
       O   -16.62469    6.86853   11.08489
      H1   -17.42402    7.21067   11.40882
       H   -16.27948    4.77876    7.24169
       O   -15.77295    4.22896    6.65134
      H1   -14.99601    4.02816    7.21782
       H   -17.07960    1.11551    5.61092
       O   -16.70564    0.48338    5.01291
      H1   -16.92298    0.71932    4.09857
       H   -16.80313    2.75467    7.02778
       O   -17.45951    2.06928    7.21621
      H1   -18.15602    2.57216    7.64861
       H   -12.09519    6.59004    8.25321
       O   -11.52373    5.99320    7.69074
      H1   -11.42578    6.62385    6.94357
       H   -13.55253    2.32042   10.34094
       O   -12.65189    2.35076   10.00378
      H1   -12.44483    1.57249    9.49425
       H   -16.32319    8.83345    7.87633
       O   -15.56849    8.91139    8.41578
      H1   -15.85975    8.88445    9.34076
       H   -10.96043    3.00793    6.89939
       O   -10.00696    2.92011    6.71837
      H1    -9.48839    3.25678    7.41748
       H   -17.10294    5.64564    3.33585
       O   -17.33557    5.30804    4.19728
      H1   -16.50737    4.98061    4.46424
       H   -14.85945    1.03928   11.99411
       O   -14.97085    1.90036   11.52805
      H1   -15.79514    1.92731   10.98152
       H   -16.98963    1.30051    8.57615
       O   -16.74073    1.26817    9.56311
      H1   -15.91246    0.72599    9.53630
       H   -12.35155    8.71178    5.80230
       O   -12.37674    7.97165    5.19322
      H1   -13.18268    7.53828    5.32716
       H   -18.67256    6.20143    5.31607
       O   -18.76883    6.88740    6.04658
      H1   -18.08633    7.50939    5.78576
       H   -12.97688    4.87871    2.96316
       O   -13.62477    5.55354    2.79232
      H1   -13.99103    5.15655    2.02498
       H   -19.58101    2.88796    2.90401
       O   -18.80700    2.84678    2.35911
      H1   -18.18601    3.47613    2.71806
       H   -17.95565    6.22295    7.36172
       O   -17.60388    5.64995    8.02837
      H1   -18.33867    5.15481    8.39439
       H   -14.34916    6.09954    4.28880
       O   -14.79968    6.38068    5.06986
      H1   -14.95705    5.56801    5.56456
       H   -16.05641    7.72244    5.28524
       O   -16.62284    8.49201    5.49539
      H1   -16.88571    8.80141    4.58658
       H   -12.82584    4.62930    7.69499
       O   -13.24693    3.76736    7.78741
      H1   -12.86928    3.41099    8.59111

