57
frame 10 | Written by MDAnalysis XYZWriter (release 2.4.3)
       H    13.11173    9.43661  -13.18336
       O    13.44453   10.28817  -13.46327
      H1    13.81317   10.68066  -12.59954
       H    14.45546    4.19819  -18.72865
       O    15.04021    4.88990  -19.07694
      H1    15.63279    4.38382  -19.65654
       H    13.46039    2.14057  -18.82951
       O    14.03672    2.47989  -18.14841
      H1    14.01603    1.93876  -17.33251
       H    13.83455    6.79754  -16.08911
       O    14.48457    7.26754  -16.59439
      H1    15.20763    6.63400  -16.77668
       H    16.82749   10.03061  -15.68888
       O    17.39548   10.72468  -15.99778
      H1    17.93797   10.43619  -16.69431
       H    12.63488    6.76200  -14.18847
       O    12.41113    6.38016  -15.09544
      H1    12.54406    5.42792  -14.97223
       H    15.08516    8.46663  -15.64575
       O    15.47682    9.01508  -14.95444
      H1    14.76534    9.57318  -14.64059
       H    11.66699    6.95105  -18.29217
       O    10.99933    6.64164  -17.66759
      H1    11.44564    6.41569  -16.83444
       H     9.47201    4.27191  -17.09239
       O    10.12613    3.82666  -17.73944
      H1    10.55786    4.63274  -18.01454
       H    10.84643   11.08418  -19.73539
       O    11.10398   10.34014  -19.23056
      H1    12.06719   10.39667  -19.27202
       H    16.54461    7.76296  -12.56901
       O    15.83319    7.23289  -12.92813
      H1    15.57403    7.63817  -13.73770
       H    17.15014    4.09417  -15.90869
       O    17.57188    3.63490  -15.14186
      H1    17.27232    2.67089  -15.23191
       H     8.25157    8.13818  -15.46282
       O     9.07059    7.65355  -15.20605
      H1     9.81224    8.18115  -15.60514
       H    13.20947    3.62250  -16.40933
       O    12.71573    3.62927  -15.61157
      H1    11.89978    3.18975  -15.89393
       H    14.27425   12.25118  -18.51787
       O    14.38021   11.92043  -19.41066
      H1    15.27182   12.15504  -19.78156
       H    19.70278    7.07029  -17.21531
       O    18.79888    7.35365  -16.95193
      H1    18.62447    8.06967  -17.57745
       H    13.66708    7.15247  -17.96978
       O    13.28536    7.12151  -18.85647
      H1    13.83124    6.41306  -19.20840
       H    10.72380   12.52975  -16.69340
       O    11.43184   11.89686  -16.71686
      H1    11.14891   11.21726  -17.34638
       H    17.56594    6.04270  -16.95686
       O    16.77481    5.47965  -16.79857
      H1    16.50427    5.26398  -17.73352

