57
frame 10 | Written by MDAnalysis XYZWriter (release 2.4.3)
       H     1.96626   -6.72749   14.54162
       O     2.83744   -6.82180   15.00449
      H1     3.51558   -6.77322   14.26951
       H    -0.01282   -6.62530   13.44535
       O     0.68583   -6.00707   13.77072
      H1     0.96429   -5.63141   12.94001
       H     4.79509   -4.34003   16.24699
       O     5.02783   -3.64655   15.53311
      H1     6.00496   -3.76498   15.30447
       H    -1.33533   -8.81739   12.98919
       O    -0.91921   -7.97107   12.80310
      H1    -1.22151   -7.75382   11.92213
       H     0.91128   -3.20694   14.66984
       O    -0.06070   -2.97651   14.60438
      H1    -0.18191   -2.04040   14.42592
       H    -0.66243   -6.87619   17.56661
       O    -1.19394   -7.65524   17.63071
      H1    -1.90571   -7.58124   17.01297
       H     0.18319  -10.57800   16.19564
       O     0.14384   -9.66481   15.90819
      H1    -0.45108   -9.21639   16.51654
       H    -0.19353   -2.61691   10.95795
       O     0.36991   -2.66136   11.75491
      H1    -0.16983   -3.04220   12.42215
       H    -1.98160   -3.37598   15.36769
       O    -2.67181   -3.88807   15.72408
      H1    -2.57495   -4.65859   15.13879
       H     2.71214   -7.35878   18.90585
       O     1.74783   -7.27754   18.87836
      H1     1.55687   -7.52856   17.94157
       H     3.67542   -5.98376   16.46198
       O     4.18721   -5.71844   17.23990
      H1     5.01328   -6.16043   17.02475
       H     3.51723   -3.69925   14.69872
       O     2.57329   -3.89402   14.46725
      H1     2.44823   -4.86542   14.55640
       H    -1.28500   -4.64423   18.83469
       O    -2.20420   -4.56857   18.56252
      H1    -2.25644   -4.17784   17.71832
       H     0.21644   -4.18386   16.21133
       O     0.11698   -5.08989   16.57957
      H1     0.34394   -5.70018   15.89127
       H    -3.91094   -7.07877   16.56548
       O    -3.43162   -7.65580   15.89995
      H1    -3.90896   -8.51630   15.72014
       H    -3.84211   -5.82324   18.20820
       O    -4.65217   -6.16014   17.80191
      H1    -5.14488   -5.39582   17.46399
       H    -5.28512   -6.54609   13.75416
       O    -4.35212   -6.76943   13.64889
      H1    -3.97823   -7.12629   14.53650
       H     3.15351   -5.05369   18.93267
       O     3.09104   -4.36521   19.60950
      H1     2.27786   -4.45851   20.14002
       H     2.04190   -9.22727   16.29903
       O     2.98814   -9.17049   16.52872
      H1     3.54156   -9.13828   15.77147

