57
frame 10 | Written by MDAnalysis XYZWriter (release 2.4.3)
       H   -12.42898    6.17175   -4.42861
       O   -11.54648    6.21144   -4.01237
      H1   -11.78104    5.92081   -3.17857
       H   -11.99148    2.61696   -4.98882
       O   -12.01496    2.17957   -5.82970
      H1   -11.30136    1.60125   -5.80740
       H    -9.77531    6.19734   -7.32861
       O    -9.49037    5.93659   -8.18777
      H1    -9.26450    4.97941   -8.12430
       H    -7.68451    6.84051   -2.45001
       O    -7.22972    6.27001   -1.81136
      H1    -7.63622    5.37229   -1.96260
       H   -10.09000    3.87480   -5.85567
       O    -9.83482    4.74277   -5.50699
      H1   -10.43314    5.07467   -4.81789
       H   -10.34780   10.37575   -7.08230
       O   -10.44995    9.42897   -6.82376
      H1   -10.56650    9.38625   -5.86827
       H    -6.86771    5.33970   -4.77011
       O    -7.10596    5.98435   -5.50283
      H1    -7.90249    5.55113   -5.88071
       H   -13.79466    5.69088   -7.45389
       O   -13.84054    5.43750   -8.37295
      H1   -12.95262    5.52342   -8.74296
       H   -13.04185    2.41755   -7.23012
       O   -13.59663    2.54488   -8.04634
      H1   -13.96787    3.44754   -7.94912
       H    -8.89046    2.64104   -9.12535
       O    -8.57433    3.18294   -8.38710
      H1    -8.37981    2.51648   -7.73901
       H    -8.64374    3.75751   -3.69291
       O    -8.02413    3.75866   -2.94575
      H1    -7.25641    3.17530   -3.17018
       H   -10.10081    1.24260   -2.28908
       O   -10.74599    1.46188   -3.00698
      H1   -11.34497    2.16332   -2.71539
       H   -11.45813    3.39972    0.78909
       O   -11.47880    3.15443   -0.09777
      H1   -11.39093    3.99349   -0.61957
       H   -11.54200    9.53102   -3.70899
       O   -11.05400    8.87376   -4.24411
      H1   -11.28222    7.97399   -4.04236
       H   -13.62481    3.63825   -3.74472
       O   -12.78270    3.71382   -3.22759
      H1   -13.08927    4.09591   -2.39055
       H    -8.74127    0.79859   -5.68953
       O    -8.38950    1.61246   -6.11275
      H1    -7.43209    1.50388   -6.09603
       H   -10.10723    5.76855   -1.39816
       O   -11.02506    5.66890   -1.38186
      H1   -11.22449    5.99526   -0.50868
       H    -8.20093    8.82600   -3.31328
       O    -8.44431    8.13226   -3.91436
      H1    -9.37412    8.31961   -4.18314
       H   -13.40321    6.97921   -6.19341
       O   -13.61981    6.20656   -5.66412
      H1   -14.42422    6.60142   -5.25125

