57
frame 9 | Written by MDAnalysis XYZWriter (release 2.4.3)
       H    -9.22387   14.14841   16.81703
       O    -8.73118   13.36847   17.02310
      H1    -9.02835   13.23933   17.96313
       H   -11.75080   13.83582   15.22175
       O   -11.89626   12.84829   15.11625
      H1   -11.06361   12.37778   15.31233
       H   -10.23208   19.69176   17.03602
       O    -9.99611   18.73865   17.14703
      H1    -9.59590   18.32800   16.33022
       H   -11.76787   15.15416   19.46448
       O   -12.68527   15.12768   19.17694
      H1   -13.03240   15.96824   19.52237
       H   -14.47865   12.95888   17.13376
       O   -14.43654   12.98985   16.18138
      H1   -13.50980   12.86767   15.97372
       H   -15.00742   14.67605   15.63079
       O   -15.37141   15.33729   15.05138
      H1   -15.64510   16.10969   15.60852
       H   -10.24347   16.13486   12.80175
       O    -9.86999   15.34176   12.42985
      H1   -10.62054   14.71267   12.40036
       H    -8.82925   17.89380   18.29486
       O    -8.41191   17.34368   19.01217
      H1    -7.76461   16.81801   18.53128
       H   -12.06943   18.32440   16.86043
       O   -12.66159   17.54092   16.91115
      H1   -12.49439   17.18015   17.77218
       H    -8.90990   14.79269   13.86760
       O    -8.25151   14.14203   14.19493
      H1    -8.43813   13.42232   13.64715
       H   -17.00059   16.46955   17.44471
       O   -16.17007   16.98932   17.29218
      H1   -16.31532   17.95870   17.52177
       H   -13.21488   14.82229   12.69222
       O   -14.03105   15.29302   12.73489
      H1   -14.41230   15.17826   13.65517
       H   -14.26281   17.07945   12.64922
       O   -14.41969   18.00879   12.36148
      H1   -13.90919   18.59197   12.93884
       H   -10.64551   16.23744   15.52721
       O   -11.34681   15.59766   15.56978
      H1   -12.05837   16.13774   15.97742
       H    -8.23113   17.52523   15.18495
       O    -9.18085   17.40204   14.97463
      H1    -9.49645   17.86159   14.16672
       H    -7.20201   15.12201   17.12177
       O    -6.70692   15.80956   17.56693
      H1    -6.42617   16.36977   16.82841
       H   -16.38504   18.48750   12.91191
       O   -17.28467   18.85184   12.91072
      H1   -17.35955   19.37850   12.10414
       H   -10.11217   18.96443   12.17263
       O   -10.55211   18.30121   12.77089
      H1   -11.44140   18.69531   12.88868
       H    -6.47548   17.22507   14.66661
       O    -6.52493   17.63388   15.55757
      H1    -6.11266   18.53853   15.54560

