57
frame 9 | Written by MDAnalysis XYZWriter (release 2.4.3)
       H    -6.87627   -4.43574   11.41365
       O    -6.70577   -4.54803   12.40055
      H1    -6.59807   -3.72321   12.78737
       H    -7.16753   -7.64637   15.72397
       O    -7.25222   -6.67609   15.67363
      H1    -7.83776   -6.47266   14.91460
       H    -1.12225   -7.72116   16.55647
       O    -1.73186   -8.52337   16.59694
      H1    -2.45150   -8.31184   15.99129
       H    -6.83521   -7.62421   18.69215
       O    -6.45650   -8.50757   18.42350
      H1    -6.87291   -8.78740   17.61873
       H    -1.97087   -4.24864   14.67632
       O    -2.27236   -4.91323   15.26400
      H1    -3.20260   -4.93648   15.32933
       H    -3.66710   -2.33276   19.48950
       O    -4.11817   -3.10286   19.86023
      H1    -3.66776   -3.83067   19.47754
       H    -8.69856   -1.20048   17.30109
       O    -8.57359   -1.67263   16.44635
      H1    -7.73407   -2.20281   16.61146
       H    -2.86345   -8.65175   18.01149
       O    -3.55088   -8.89517   18.62477
      H1    -4.37386   -8.55940   18.19862
       H    -5.85082   -2.14883   13.33791
       O    -6.25166   -2.18894   14.18630
      H1    -6.98024   -1.57766   14.20639
       H    -4.13863   -0.38407   16.72608
       O    -3.69721   -1.16321   17.07123
      H1    -2.81108   -1.21152   16.65668
       H    -6.78731  -10.02370   15.18344
       O    -7.22246   -9.35722   15.76034
      H1    -8.04958   -9.15842   15.30712
       H    -1.84076   -5.73654   18.78651
       O    -2.35727   -4.97751   18.36312
      H1    -1.91508   -4.73105   17.52776
       H    -0.70870   -5.45009   16.02319
       O    -0.20217   -6.09779   16.55592
      H1     0.66562   -5.95677   16.19639
       H    -8.85234   -4.78575   17.48487
       O    -8.09855   -5.32235   17.88227
      H1    -7.56323   -5.68782   17.18552
       H    -9.78391   -7.58975   19.63928
       O    -9.99324   -7.09036   18.83280
      H1    -9.16170   -6.58236   18.55984
       H    -6.12354   -2.95817   15.92944
       O    -5.96282   -3.35101   16.81250
      H1    -5.24537   -2.76076   17.13525
       H    -4.73858   -6.72815   16.46913
       O    -4.39513   -7.37935   15.72882
      H1    -5.00427   -8.11249   15.79278
       H    -4.08624   -5.47145   17.78403
       O    -5.00670   -5.56668   17.46004
      H1    -5.39671   -4.68346   17.27363
       H    -5.37535   -5.60451   13.29491
       O    -4.45953   -5.92232   13.30689
      H1    -4.39330   -6.52016   14.06397

