57
frame 10 | Written by MDAnalysis XYZWriter (release 2.4.3)
       H    17.18650   14.80739   -4.00767
       O    16.20978   14.74336   -4.05654
      H1    16.06824   13.78215   -4.14531
       H     7.85796    9.18133   -2.09526
       O     6.98428    8.83327   -2.36450
      H1     6.87045    9.10627   -3.28131
       H    16.15372   11.40381   -3.82191
       O    15.60675   11.96549   -4.43181
      H1    14.77348   12.07296   -4.00773
       H     9.26541   12.97452   -7.35559
       O    10.17175   13.33690   -7.29149
      H1    10.05692   14.20584   -6.93949
       H     7.92940   13.81015   -5.11666
       O     8.60594   13.99085   -4.40689
      H1     8.23077   14.67305   -3.83847
       H    12.68415    9.45438   -3.62152
       O    13.04357    9.33725   -2.72809
      H1    12.77606    8.45372   -2.51116
       H    11.40349   12.32773   -3.30083
       O    10.45612   11.94721   -3.40574
      H1     9.90323   12.74129   -3.41573
       H    12.79942   12.83503   -1.96665
       O    13.02624   12.41162   -2.81846
      H1    13.50389   11.56546   -2.73945
       H     8.88658   14.65568   -0.39698
       O     8.91787   14.06264   -1.17086
      H1     9.36738   13.26951   -0.88955
       H    13.32554   12.86953   -7.45461
       O    12.86106   12.04792   -7.22526
      H1    11.97102   12.43268   -6.98841
       H    12.57656   14.40462    0.37946
       O    12.74897   14.08404   -0.58259
      H1    12.03434   14.58259   -1.02334
       H    10.17696    9.15141   -6.41936
       O    10.08941    9.47371   -7.35325
      H1     9.62716    8.80507   -7.92698
       H    11.14472   15.07409   -3.48916
       O    11.03064   15.31515   -2.51165
      H1    10.16235   15.02145   -2.18490
       H    10.15535   10.69677   -2.22164
       O     9.55330   10.17880   -1.64756
      H1    10.06565    9.47591   -1.11277
       H    13.31274   10.93406   -5.84097
       O    13.26385   10.06548   -5.40237
      H1    12.34368    9.66148   -5.57231
       H    10.40714   14.94267   -5.04763
       O    11.26839   15.40528   -5.16435
      H1    11.02264   16.30725   -4.77878
       H    11.00018   12.31044    0.40533
       O    10.07304   12.04762    0.47438
      H1     9.90707   11.33451   -0.16948
       H    14.52219   13.03743    0.27530
       O    15.28071   12.61358    0.67995
      H1    15.65123   11.99920    0.01651
       H    10.30841    8.16404   -4.41414
       O    10.46372    9.04068   -4.81178
      H1    10.13708    9.75141   -4.31597

