57
frame 10 | Written by MDAnalysis XYZWriter (release 2.4.3)
       H    12.98723   12.95055  -16.90356
       O    13.80620   13.41335  -16.93897
      H1    14.34202   13.07606  -16.19876
       H     6.57856   16.46542  -18.48656
       O     6.01978   17.15202  -18.80074
      H1     6.37295   17.99431  -18.44109
       H    11.16111   14.70160  -19.51002
       O    10.17136   14.70129  -19.55086
      H1     9.88450   14.70362  -18.65859
       H    12.17172   17.05394  -19.63475
       O    11.71247   16.86616  -18.78869
      H1    10.90818   16.36560  -19.06075
       H     6.97215   17.35700  -14.57565
       O     7.03108   16.98634  -15.47181
      H1     6.64779   16.14415  -15.36774
       H    13.92886   18.93233  -17.06549
       O    13.38713   19.70486  -16.81342
      H1    12.43876   19.49839  -16.83767
       H    10.13152   16.80508  -16.53704
       O     9.41560   16.24285  -16.79383
      H1     8.63673   16.63442  -16.40038
       H     6.45473   13.25215  -17.51170
       O     7.12730   13.25082  -18.20530
      H1     7.93629   13.44110  -17.69418
       H     9.32323   14.39922  -16.37439
       O     9.28717   13.40497  -16.48414
      H1     8.95280   13.00791  -15.62269
       H    12.76197   15.12390  -16.40962
       O    12.46281   15.99950  -16.27967
      H1    12.35507   16.31762  -17.18662
       H    11.25547   16.11922  -14.66929
       O    11.20029   16.47353  -13.82327
      H1    10.26885   16.40225  -13.54951
       H    10.84643   11.08418  -19.73539
       O    11.10398   10.34014  -19.23056
      H1    12.06719   10.39667  -19.27202
       H     3.89511   13.29419  -16.83286
       O     4.71575   12.86507  -16.53666
      H1     4.40908   12.12105  -15.99182
       H    10.54907   20.20009  -19.05788
       O    10.07348   19.36689  -18.81442
      H1    10.41357   18.73906  -19.48766
       H    10.22058   19.31859  -15.44390
       O    11.05095   19.34612  -14.97357
      H1    11.14095   18.47024  -14.54411
       H    14.27425   12.25118  -18.51787
       O    14.38021   11.92043  -19.41066
      H1    15.27182   12.15504  -19.78156
       H    13.68209   18.72549  -15.01220
       O    13.84698   18.00768  -14.44594
      H1    13.65207   17.21204  -14.99565
       H    10.72380   12.52975  -16.69340
       O    11.43184   11.89686  -16.71686
      H1    11.14891   11.21726  -17.34638
       H     9.77461   11.67517  -14.09125
       O     8.81325   11.59851  -14.37199
      H1     8.36780   11.07341  -13.68482

