60
frame 0 | Written by MDAnalysis XYZWriter (release 2.4.3)
       H    -3.88993   17.86291    7.94892
       O    -4.45245   17.49761    8.65082
      H1    -4.76222   18.31488    9.06086
       H     3.32505   14.90796    8.70746
       O     2.98610   15.81448    8.60478
      H1     2.02217   15.69186    8.62116
       H    -3.64762   16.65689   11.07485
       O    -3.51902   15.71799   11.01431
      H1    -4.13947   15.30000   11.60500
       H     0.87221   18.61188    6.30584
       O     1.71593   19.04211    6.23408
      H1     2.06464   18.95991    7.14255
       H    -2.55223   18.08161    9.23363
       O    -1.89522   18.71535    9.60048
      H1    -1.35660   18.84934    8.82442
       H     0.41670   15.57726   12.93767
       O     1.36675   15.43042   13.10413
      H1     1.54642   14.63094   12.54618
       H    -4.81837   17.67025   13.01208
       O    -5.35941   17.12485   12.47263
      H1    -6.25943   17.27606   12.82590
       H    -3.11505   16.88296   13.89258
       O    -2.37131   16.30993   13.99227
      H1    -2.58160   15.56819   13.38721
       H    -6.39230   19.73783   10.60158
       O    -6.40516   18.82522   10.26156
      H1    -6.26489   18.31045   11.05516
       H    -5.26040   16.17564    6.97558
       O    -5.12570   15.58596    6.23472
      H1    -5.69156   14.83880    6.51736
       H    -1.64188   14.74979   11.84437
       O    -1.30246   14.21514   12.55251
      H1    -1.82202   13.43343   12.51363
       H    -0.47625   15.93711    9.36774
       O     0.02518   15.41025    8.69728
      H1    -0.66914   14.79770    8.36066
       H    -0.71739   19.34122    4.05077
       O    -0.73833   18.43320    4.39687
      H1    -1.57190   18.06815    4.07416
       H    -3.54449   19.04004    6.03953
       O    -3.46707   18.08368    6.12908
      H1    -3.72511   17.75957    5.24956
       H    -2.63972   14.21928    7.36015
       O    -1.74070   13.92642    7.21059
      H1    -1.36060   14.55625    6.58154
       H    -0.63492   17.68785   11.17771
       O    -0.34482   16.81216   11.37198
      H1     0.56340   16.90878   11.69736
       H    -4.08484   14.57958    9.66199
       O    -3.90946   13.85324    9.02038
      H1    -4.82461   13.68991    8.68891
       H    -7.00285   15.72779   10.29598
       O    -7.18034   15.30054   11.13146
      H1    -7.62799   14.47643   10.90337
       H    -7.27300   16.93513    8.11969
       O    -6.77942   16.29677    8.69666
      H1    -5.89448   16.66500    8.59965
       H    -0.59541   16.89518    7.37437
       O    -0.67447   17.80543    7.13046
      H1    -0.90924   17.77422    6.17774

