60
frame 0 | Written by MDAnalysis XYZWriter (release 2.4.3)
       H    -3.29428    5.71018  -10.60942
       O    -2.78646    5.67412  -11.43648
      H1    -2.69794    4.71624  -11.51749
       H    -4.64592    6.40275   -8.23908
       O    -4.46209    6.52960   -9.17632
      H1    -5.30534    6.51967   -9.59357
       H     0.63133    4.69671   -3.71351
       O     0.23944    5.57388   -3.90042
      H1     0.99800    6.14948   -4.03317
       H    -3.90026    2.26538   -7.24208
       O    -4.68013    1.80664   -6.90578
      H1    -5.44471    2.25586   -7.34202
       H    -3.26250    3.16155   -3.09488
       O    -3.72330    2.50716   -3.66359
      H1    -3.92683    1.78875   -3.04461
       H    -1.98069    2.18820   -6.06425
       O    -1.82143    1.47653   -5.40758
      H1    -2.41389    1.70134   -4.67438
       H    -2.65348    5.53264   -6.13381
       O    -3.41394    6.08780   -6.38467
      H1    -2.96371    6.86047   -6.71986
       H    -0.61098    7.82520   -9.92942
       O    -0.13061    7.41429   -9.21694
      H1    -0.51768    7.83587   -8.46123
       H     0.82564    2.03488   -4.31932
       O     0.29088    2.63097   -3.79262
      H1    -0.56527    2.47340   -4.18069
       H    -5.94135    7.53760   -4.03210
       O    -6.78548    7.93655   -3.72253
      H1    -7.07841    8.55284   -4.41544
       H    -6.64160    5.18716   -7.47893
       O    -6.65705    6.15577   -7.34814
      H1    -7.35005    6.27321   -6.66819
       H    -4.05915    6.51614   -4.68370
       O    -4.20246    7.12651   -3.93981
      H1    -3.75117    6.68687   -3.19352
       H    -1.88274    8.37639   -6.39199
       O    -1.97861    8.19419   -7.33340
      H1    -2.54806    8.89451   -7.70866
       H    -6.51671    3.45643   -5.74347
       O    -6.20600    3.80370   -4.88721
      H1    -5.30633    3.43911   -4.91013
       H    -2.87895    7.74728   -1.57763
       O    -1.98375    7.67614   -1.89188
      H1    -1.90144    6.76698   -2.20211
       H    -2.54701    1.70706   -8.63809
       O    -2.31042    2.25492   -7.87374
      H1    -1.85331    3.00223   -8.28944
       H    -1.05729    5.00710   -9.87321
       O    -0.73162    4.24001   -9.38682
      H1     0.26363    4.33475   -9.42858
       H    -0.50252    4.65282   -5.63702
       O    -1.31369    4.54847   -6.16138
      H1    -0.98287    4.51017   -7.05652
       H    -2.92580    8.37351   -4.45238
       O    -2.21453    8.98354   -4.71036
      H1    -1.95997    9.33930   -3.83315
       H    -3.63830    4.72233   -1.69699
       O    -2.97909    4.91448   -2.41477
      H1    -2.18837    4.45325   -2.10982

