60
frame 0 | Written by MDAnalysis XYZWriter (release 2.4.3)
       H    12.80112    5.07006   11.43694
       O    13.10202    5.38540   10.57115
      H1    12.48284    4.99797    9.94183
       H    14.22940    3.67087   10.45920
       O    14.01281    2.75325   10.43715
      H1    14.80128    2.33217   10.81790
       H    10.74784    2.40194   13.21649
       O     9.85167    2.24450   13.48236
      H1     9.53782    3.15168   13.70691
       H    13.75372    1.31299   16.02099
       O    14.70490    1.44287   16.01075
      H1    14.81501    2.24692   15.46698
       H    15.70080    3.27295   13.45241
       O    15.09706    3.31702   14.17281
      H1    15.59236    3.93476   14.73145
       H    12.03455   -1.34192   10.68688
       O    11.57190   -0.54312   10.41080
      H1    11.62780    0.05029   11.16837
       H     9.12786   -2.45130    9.69036
       O     9.57656   -2.77437   10.47925
      H1    10.09973   -2.02623   10.77998
       H    11.36028    0.34365    8.82390
       O    11.37842    0.94118    8.06294
      H1    12.29111    1.24013    8.00666
       H     7.58886    2.68168   10.08883
       O     8.15429    1.89088   10.12963
      H1     7.96962    1.47537    9.27324
       H    13.39146    4.58415   13.59761
       O    12.53530    4.64725   13.16455
      H1    12.28578    3.71060   13.12980
       H    14.27551    1.20645    7.42281
       O    13.96430    2.03157    7.77945
      H1    14.22784    2.00039    8.70924
       H    12.64080    3.48136    8.65681
       O    12.02663    4.18021    8.41778
      H1    11.17420    3.75347    8.52716
       H    12.82443   -2.76499   13.81388
       O    12.58503   -2.10001   13.17437
      H1    12.67546   -2.48367   12.26590
       H     8.04822    0.65815   13.27131
       O     7.62781    0.34531   12.49502
      H1     7.95532    0.95065   11.77315
       H    17.30971    2.91668   11.35414
       O    16.44106    2.68661   11.73801
      H1    16.59777    1.81750   12.18219
       H    13.52030   -0.62385   13.68377
       O    14.19368    0.08120   13.72725
      H1    14.10464    0.45108   14.62393
       H     9.94913   -3.33524   13.90030
       O     9.96967   -2.35914   13.89911
      H1    10.79710   -2.08574   13.50364
       H    10.12337    5.71100   12.57179
       O    10.23222    5.76140   11.63933
      H1    10.18645    6.68264   11.45729
       H    12.62867    2.20380   11.47682
       O    12.23510    1.75657   12.24841
      H1    12.90738    1.15198   12.56091
       H    11.16228    1.63779   15.67295
       O    11.95845    1.90532   16.15848
      H1    11.57345    2.35195   17.00162

