60
frame 0 | Written by MDAnalysis XYZWriter (release 2.4.3)
       H    11.56230   -1.79763  -15.77689
       O    11.91134   -1.86882  -16.66241
      H1    11.33476   -2.55407  -17.08965
       H    16.47708   -3.42499  -13.94930
       O    15.67928   -3.09625  -13.53229
      H1    15.89881   -3.26058  -12.62008
       H    11.49993   -9.38642  -15.51433
       O    11.06277   -8.52238  -15.55725
      H1    11.70376   -7.96495  -16.00489
       H    14.47394   -8.87260  -18.16776
       O    13.69717   -8.56091  -17.70832
      H1    12.94594   -8.84397  -18.23929
       H    13.92247   -3.15952  -13.36170
       O    12.97445   -3.43812  -13.37775
      H1    12.99579   -4.39567  -13.47063
       H    13.03039   -6.83402  -13.24062
       O    13.52542   -6.17815  -13.76391
      H1    14.38558   -6.39972  -13.46824
       H    11.54837   -8.31779  -13.94579
       O    11.57510   -8.08650  -13.02191
      H1    10.93376   -7.36247  -12.93932
       H    14.60534   -5.22747  -16.26719
       O    15.46833   -4.86252  -16.53095
      H1    15.95441   -5.59186  -16.92130
       H    16.92669   -9.16487  -18.04528
       O    16.45760   -8.91269  -17.25519
      H1    16.96094   -8.12766  -16.96526
       H    10.24382   -4.89551  -16.90642
       O    10.16811   -3.96132  -17.25355
      H1    10.28693   -4.08835  -18.20727
       H    10.05962   -7.03471  -15.77734
       O     9.36163   -6.36243  -16.00822
      H1     8.98257   -6.66108  -16.83408
       H    13.62588   -2.20149  -16.82453
       O    14.57435   -2.28348  -16.63077
      H1    14.64085   -3.18873  -16.31184
       H    14.38520   -9.04051  -15.66836
       O    14.19977   -9.12631  -14.73670
      H1    14.72503   -8.45251  -14.30692
       H    13.07535  -11.27913  -15.49850
       O    12.15430  -11.02291  -15.62099
      H1    11.70759  -11.33295  -14.80897
       H    15.39251   -7.67460  -11.67351
       O    15.74187   -7.63897  -12.58136
      H1    16.52619   -7.07523  -12.52820
       H     9.72023   -5.95059  -11.59701
       O    10.65726   -6.02546  -11.44502
      H1    10.60497   -6.29042  -10.52454
       H    13.16424   -6.69850  -15.42930
       O    12.96143   -6.42791  -16.32111
      H1    13.47990   -7.01223  -16.87914
       H    17.01969   -9.90864  -11.45469
       O    16.63622  -10.06906  -12.32683
      H1    16.25362   -9.24364  -12.55985
       H     9.26358   -8.10768  -14.40282
       O     8.65466   -8.51801  -13.78006
      H1     8.34497   -7.77391  -13.24927
       H    15.58555  -11.94383  -15.95475
       O    14.76510  -11.90101  -15.43513
      H1    14.73801  -10.96385  -15.19889

