60
frame 0 | Written by MDAnalysis XYZWriter (release 2.4.3)
       H     3.11582   16.74252   -4.27111
       O     2.99711   16.64908   -3.31008
      H1     3.84571   16.40954   -2.95094
       H    -0.18153   10.95163   -3.36481
       O     0.03943   11.44390   -4.17870
      H1     0.55278   10.74837   -4.60333
       H    -0.45480   14.69553   -3.98693
       O    -0.84149   14.01809   -3.41822
      H1    -0.40990   13.21582   -3.70828
       H     1.98830   13.36048   -1.44796
       O     2.50596   12.54257   -1.37405
      H1     2.74930   12.35071   -2.26469
       H     1.81641   18.42913   -2.57309
       O     1.05139   18.29633   -2.03375
      H1     1.19799   17.39035   -1.74045
       H    -6.01587   15.00211   -2.49091
       O    -5.22376   15.39136   -2.89620
      H1    -4.45750   15.00958   -2.45287
       H    -2.95502   15.44800   -5.35205
       O    -2.83001   14.52626   -5.16279
      H1    -2.19761   14.45649   -4.46254
       H    -4.38624   13.91644   -5.80873
       O    -5.11815   13.66767   -6.38503
      H1    -5.88605   13.60757   -5.79532
       H     1.65759   16.97792   -5.76659
       O     2.63990   16.96124   -5.92402
      H1     2.70339   17.05353   -6.89149
       H     3.33485   13.70113   -5.40375
       O     2.43286   13.72378   -5.09365
      H1     2.29424   14.64692   -4.77368
       H    -0.00963   11.65294   -7.30726
       O    -0.91616   11.60473   -6.97536
      H1    -0.78013   11.65865   -6.00445
       H     1.97319   12.56168   -6.90703
       O     1.64132   11.76722   -7.35763
      H1     2.09395   11.77874   -8.21174
       H    -1.65681   18.00774   -2.86569
       O    -2.09449   18.12038   -2.00812
      H1    -1.66580   17.54533   -1.39018
       H     0.32318   14.34507   -2.15748
       O     1.01186   14.82336   -1.72223
      H1     1.48540   15.17493   -2.47693
       H    -3.91726   17.54994   -4.89399
       O    -3.57056   17.05212   -5.65293
      H1    -4.34523   16.92487   -6.23173
       H    -0.46385   16.33491    0.15050
       O    -1.44688   16.33689    0.05626
      H1    -1.76130   16.44458    0.93444
       H     0.21373   15.50447   -5.97726
       O     0.27541   15.86347   -5.08661
      H1    -0.33870   16.60162   -5.06337
       H     0.10910   18.47873   -3.59092
       O    -0.57978   18.31334   -4.26033
      H1    -0.73679   19.22496   -4.58282
       H    -1.19469   13.29325   -7.44929
       O    -1.54785   14.18403   -7.53204
      H1    -1.99697   14.25058   -6.65743
       H    -2.34287   14.82320   -1.06498
       O    -2.98910   14.29301   -1.55080
      H1    -2.47914   13.83780   -2.24205

