60
frame 0 | Written by MDAnalysis XYZWriter (release 2.4.3)
       H    -3.29428    5.71018  -10.60942
       O    -2.78646    5.67412  -11.43648
      H1    -2.69794    4.71624  -11.51749
       H    -3.90026    2.26538   -7.24208
       O    -4.68013    1.80664   -6.90578
      H1    -5.44471    2.25586   -7.34202
       H    -2.94843   -1.17733  -13.89734
       O    -2.18915   -0.59260  -13.94328
      H1    -1.74912   -0.68622  -13.08723
       H    -7.80191    0.94857   -9.64049
       O    -6.96723    0.58063   -9.32538
      H1    -6.53166    1.41288   -9.15340
       H    -0.53979    1.37048   -7.24539
       O     0.38337    1.14842   -7.55074
      H1     0.56544    1.84969   -8.21282
       H    -5.02775    0.13045  -13.93687
       O    -4.63772    0.66932  -13.26454
      H1    -3.78588    0.24220  -13.08630
       H    -6.25229    3.38208   -8.90958
       O    -5.56733    3.05341   -9.49058
      H1    -5.97238    2.98103  -10.34073
       H    -6.42745   -0.16458  -10.84869
       O    -6.23093   -0.75075  -11.56318
      H1    -5.65467   -0.28927  -12.21086
       H    -4.09531    0.27570   -7.82896
       O    -3.75285   -0.15568   -8.59109
      H1    -3.03833   -0.71555   -8.22287
       H     0.16432   -0.55657  -11.55579
       O    -0.76432   -0.61340  -11.78341
      H1    -1.19709    0.15643  -11.39844
       H    -6.45525    4.12001  -12.46287
       O    -6.15490    3.19732  -12.42365
      H1    -6.81317    2.77477  -12.94920
       H    -1.66854    1.18292  -14.21497
       O    -1.43089    2.09245  -14.36566
      H1    -0.81439    2.25497  -13.63562
       H    -4.69114   -2.68671  -10.68927
       O    -4.24980   -2.67221   -9.82213
      H1    -4.32112   -1.71203   -9.61977
       H    -2.54701    1.70706   -8.63809
       O    -2.31042    2.25492   -7.87374
      H1    -1.85331    3.00223   -8.28944
       H    -2.75742    2.04513  -11.52509
       O    -2.52851    1.40453  -10.83944
      H1    -3.32995    0.93433  -10.72361
       H    -1.05729    5.00710   -9.87321
       O    -0.73162    4.24001   -9.38682
      H1     0.26363    4.33475   -9.42858
       H     0.16719    3.85377  -12.57828
       O    -0.05326    2.97910  -12.34324
      H1    -0.29760    3.00178  -11.39629
       H     1.92796    1.89765  -10.62504
       O     1.72383    2.52521   -9.91282
      H1     2.00453    3.38550  -10.29664
       H    -4.06965    2.89819  -12.74957
       O    -3.18517    3.29213  -12.70522
      H1    -2.68133    2.85427  -13.40068
       H    -0.26662   -0.61539   -9.11012
       O    -0.52076   -1.54471   -9.10698
      H1    -0.96694   -1.71248   -9.93656

