60
frame 0 | Written by MDAnalysis XYZWriter (release 2.4.3)
       H    -4.68315  -16.81628   -0.20102
       O    -4.93082  -17.40988    0.49607
      H1    -5.27744  -18.15487    0.00251
       H    -7.28290  -17.37237    1.61347
       O    -8.18504  -17.54791    1.34996
      H1    -8.54230  -16.65587    1.13279
       H    -3.97333  -13.16499    5.55298
       O    -3.06642  -13.08038    5.20722
      H1    -2.78416  -12.17955    5.49854
       H    -4.47422  -16.40770    7.97046
       O    -4.92120  -15.60201    8.22379
      H1    -4.42228  -15.35626    9.02363
       H    -8.69273  -16.00937    5.66570
       O    -8.66010  -15.06597    5.89834
      H1    -8.56330  -14.97542    6.87601
       H    -2.90697  -16.23437    3.70035
       O    -2.32398  -15.78973    4.35554
      H1    -2.71677  -14.89959    4.37444
       H    -5.75754  -13.02559    6.54350
       O    -5.54480  -13.88579    6.15116
      H1    -5.43840  -14.45008    6.92466
       H    -9.14569  -17.86654    4.44278
       O    -8.59459  -17.11627    4.14172
      H1    -8.39124  -17.35845    3.20941
       H    -3.19935  -13.83461    1.36692
       O    -3.40061  -14.77004    1.20331
      H1    -3.85119  -14.73795    0.34625
       H    -6.20171  -14.07756    1.93946
       O    -6.21616  -15.03475    1.93803
      H1    -5.47044  -15.26538    1.39527
       H    -2.68444  -12.20111    3.31918
       O    -2.54681  -12.44384    2.39817
      H1    -1.66416  -12.84992    2.34682
       H   -10.20414  -16.16283    3.83196
       O   -11.10534  -15.83177    3.63316
      H1   -11.28391  -15.25571    4.41730
       H    -6.97483  -12.64150    4.21957
       O    -7.83460  -12.53850    4.65421
      H1    -7.87681  -13.30274    5.26176
       H    -5.23674  -11.51194    2.11603
       O    -5.79893  -12.27465    1.96936
      H1    -6.35990  -12.02139    1.23011
       H    -5.47586  -15.30525    4.87685
       O    -5.53404  -16.14914    4.41673
      H1    -5.93086  -15.89722    3.58221
       H    -2.27057  -17.02660    7.50753
       O    -3.05905  -17.12655    6.94127
      H1    -2.84412  -16.50859    6.23151
       H    -5.74996  -15.05474   -1.12057
       O    -4.81139  -14.93945   -1.06803
      H1    -4.41666  -15.54119   -1.74443
       H    -7.55611  -18.21093    7.51926
       O    -7.88863  -17.40601    7.89692
      H1    -7.13971  -16.81164    7.96134
       H    -4.11143  -17.31973    2.25010
       O    -3.67007  -17.56375    3.08262
      H1    -4.31799  -17.23644    3.67424
       H    -9.58933  -14.63339    1.70843
       O    -9.04212  -15.08413    1.02492
      H1    -8.16576  -14.91088    1.39849

