60
frame 0 | Written by MDAnalysis XYZWriter (release 2.4.3)
       H    -2.55159  -13.18000   -4.36344
       O    -3.49939  -12.91842   -4.44332
      H1    -3.91871  -13.74459   -4.71808
       H   -11.27817  -12.35083   -6.16914
       O   -10.52473  -12.24412   -5.58361
      H1    -9.90660  -11.75294   -6.14790
       H    -6.31820  -12.81846   -2.92022
       O    -6.94798  -13.07644   -3.64838
      H1    -7.28873  -13.92269   -3.35845
       H    -9.51822  -14.17985   -4.23187
       O    -9.63927  -14.24635   -3.27720
      H1   -10.02413  -15.09784   -3.12030
       H    -4.15814  -12.68908   -2.71738
       O    -4.84667  -12.41690   -2.07144
      H1    -5.14737  -13.26800   -1.72031
       H    -5.93675  -13.80389   -7.61771
       O    -6.55355  -14.41886   -8.05960
      H1    -7.00318  -13.77407   -8.57211
       H    -9.76417   -9.65184   -2.36712
       O    -9.62974   -9.72069   -1.39373
      H1    -9.39673  -10.65513   -1.30389
       H    -7.53333  -15.90530   -4.46048
       O    -7.04747  -16.00625   -3.61848
      H1    -7.11259  -16.94868   -3.47841
       H   -10.93469  -13.13186   -2.86323
       O   -11.24003  -12.31611   -2.43722
      H1   -11.89650  -12.62478   -1.82016
       H    -8.08921  -10.42900   -6.39841
       O    -8.93402  -10.65114   -6.82667
      H1    -8.73434  -11.44582   -7.33718
       H    -8.50598  -16.07361   -6.29691
       O    -8.43383  -15.26339   -5.79424
      H1    -7.88729  -14.70900   -6.35865
       H    -5.21413  -15.84357   -5.85204
       O    -4.84200  -15.21518   -5.20742
      H1    -5.50008  -15.29922   -4.53917
       H    -8.34780  -15.09712   -0.69586
       O    -7.60303  -14.83736   -1.27953
      H1    -7.75137  -15.39591   -2.06655
       H    -9.88066  -17.03443   -2.15673
       O   -10.52930  -16.50055   -2.62110
      H1   -11.14229  -16.16286   -1.95408
       H    -7.48468   -9.77666   -3.33035
       O    -7.23845   -8.91834   -2.93810
      H1    -6.45927   -8.70979   -3.46942
       H    -4.20798  -12.67020   -6.06047
       O    -4.48283  -12.51663   -6.96167
      H1    -5.31755  -12.00964   -6.89342
       H    -5.74996  -15.05474   -1.12057
       O    -4.81139  -14.93945   -1.06803
      H1    -4.41666  -15.54119   -1.74443
       H    -5.94321  -10.58261   -4.98380
       O    -6.57492  -11.00562   -5.55034
      H1    -6.69979  -11.89127   -5.14247
       H    -6.18774  -11.07379   -1.14858
       O    -6.73217  -11.41143   -0.42066
      H1    -7.49709  -11.69858   -0.94937
       H    -8.57718  -13.37959   -1.08323
       O    -9.09977  -12.62374   -0.83457
      H1    -9.91336  -12.66085   -1.36763

