60
frame 0 | Written by MDAnalysis XYZWriter (release 2.4.3)
       H    13.00046   -5.23809   12.87754
       O    13.37294   -5.33655   11.98648
      H1    13.12658   -6.23409   11.68312
       H    10.89856   -5.39502   12.89945
       O    10.72785   -4.96364   13.73938
      H1    11.56591   -4.92898   14.16785
       H     9.18670   -7.46249   15.72064
       O     9.66686   -7.69925   14.91478
      H1    10.32523   -7.04185   14.81313
       H    10.48940  -12.77553   12.04853
       O    10.94956  -13.05121   12.85899
      H1    10.42101  -12.70284   13.56899
       H    10.63625   -6.52861   10.34050
       O    10.62787   -6.76078   11.30967
      H1     9.74057   -7.12854   11.47682
       H    10.17485   -8.28198    6.60690
       O    10.15515   -8.57007    7.54900
      H1    10.69516   -9.35487    7.54936
       H     6.95024   -6.30640   13.30061
       O     7.13171   -7.27232   13.17259
      H1     7.14714   -7.41218   12.21919
       H    14.41328   -8.30149   11.56204
       O    14.11989   -7.66806   10.91932
      H1    13.41194   -8.12309   10.43831
       H     9.22089   -9.20050   13.10869
       O     9.26231   -9.31685   12.18716
      H1     8.85094   -8.51089   11.82528
       H    10.34321  -12.10047    9.75145
       O    10.97791  -11.72361   10.37742
      H1    11.75060  -12.27795   10.27129
       H     6.09335  -10.03416   12.91707
       O     6.94336  -10.28220   13.29980
      H1     7.54297   -9.71652   12.76159
       H    11.75728  -10.78224    8.51021
       O    11.47065  -10.91297    7.62336
      H1    12.28859  -11.07936    7.12942
       H     7.52087   -7.02907    9.93211
       O     7.66469   -7.71149   10.58582
      H1     7.36826   -8.49322   10.15331
       H    13.25076  -10.03885   11.62033
       O    14.18613  -10.32701   11.68481
      H1    14.19616  -11.04399   12.30888
       H     8.70080   -9.28003    8.17455
       O     8.10502   -9.75749    8.75746
      H1     7.26392   -9.56844    8.37449
       H    13.31063   -7.41663   13.94590
       O    12.73348   -6.95226   14.58050
      H1    13.37293   -6.76977   15.30345
       H     7.99871  -11.42590   12.16271
       O     8.23164  -12.24843   11.70526
      H1     7.36896  -12.59571   11.48348
       H    10.81801   -9.10287   15.84661
       O    11.12172   -9.65124   16.58988
      H1    10.33913  -10.18368   16.86298
       H    11.11627   -8.86574   11.57037
       O    11.60160   -9.39884   10.94709
      H1    11.08046  -10.19894   10.92273
       H    10.47064   -6.96512    8.19708
       O    10.47462   -6.08784    8.58311
      H1     9.54910   -5.84495    8.53693

