60
frame 0 | Written by MDAnalysis XYZWriter (release 2.4.3)
       H    18.74296  -16.48917   -2.83577
       O    17.86268  -16.35236   -2.42958
      H1    17.23580  -16.62563   -3.11247
       H    14.14120  -17.38453    1.92484
       O    14.97313  -17.62039    1.45093
      H1    14.59510  -17.94054    0.61380
       H    17.95846  -17.48063    2.63280
       O    17.80683  -17.25101    1.73197
      H1    16.84217  -17.41353    1.71000
       H    11.50824  -18.55666   -0.82736
       O    11.87288  -18.16800   -1.63598
      H1    11.44273  -18.58336   -2.37785
       H    12.25522  -15.89224   -0.65570
       O    12.55487  -15.55076    0.18964
      H1    13.48110  -15.35059    0.04205
       H    14.11705  -15.31753    5.55235
       O    13.66319  -14.80736    6.22887
      H1    13.60587  -15.32020    7.01529
       H    14.80645  -15.67842   -0.97194
       O    15.23878  -15.19319   -0.24980
      H1    15.41255  -15.86245    0.40792
       H    18.33678  -17.71812   -1.05272
       O    18.79632  -18.53733   -0.87358
      H1    18.66539  -18.54181    0.07159
       H    15.06185  -18.19065    5.58042
       O    15.84389  -18.47543    6.06904
      H1    16.09674  -17.72142    6.61627
       H    11.22076  -17.16898    3.19462
       O    10.79709  -17.20483    4.04724
      H1    10.56340  -16.30672    4.28652
       H    12.58982  -18.38881    5.14394
       O    13.46735  -18.18934    4.82940
      H1    13.34499  -17.29762    4.41987
       H    19.12903  -14.29735    1.81406
       O    18.90167  -14.79384    1.01884
      H1    18.26511  -15.47432    1.34964
       H    14.22306  -17.30501   -2.32635
       O    14.07772  -16.39861   -2.67750
      H1    14.90760  -16.20918   -3.14720
       H    17.41472  -14.38507    3.66940
       O    16.59232  -14.20632    3.23183
      H1    16.83674  -13.56013    2.57628
       H    11.42215  -13.46002    3.51985
       O    12.34727  -13.53572    3.25362
      H1    12.74621  -12.67385    3.37791
       H    12.38021  -16.75884    1.36633
       O    12.34817  -17.53971    1.89489
      H1    12.16165  -18.26063    1.30002
       H    16.94131  -13.74743   -0.94912
       O    17.60163  -13.83657   -1.66022
      H1    17.72870  -14.78823   -1.71226
       H    17.43023  -18.33491    4.94692
       O    18.08373  -17.85262    4.41992
      H1    18.74143  -18.51090    4.10738
       H    13.43230  -15.17996    3.24233
       O    14.14918  -15.76122    3.55463
      H1    14.99646  -15.29195    3.35325
       H    18.57328  -15.09274    5.85000
       O    18.56732  -15.16296    4.88975
      H1    18.40008  -16.08530    4.72175

