60
frame 0 | Written by MDAnalysis XYZWriter (release 2.4.3)
       H    -0.88114   -4.34018   10.53802
       O    -0.17554   -4.19551   11.19336
      H1    -0.68145   -4.21926   11.99665
       H    -3.76597   -2.52527   12.79516
       O    -3.11424   -1.88143   12.55357
      H1    -2.52071   -1.78882   13.31276
       H    -3.80856   -0.70104   15.45384
       O    -4.06805   -1.20677   16.23561
      H1    -5.04787   -1.14536   16.16534
       H     1.11867   -4.54964   14.93269
       O     1.11024   -3.82821   14.29100
      H1     1.03969   -3.07706   14.86640
       H    -3.61135    1.80823   12.72682
       O    -3.49596    2.37657   11.98349
      H1    -4.03837    3.15186   12.21323
       H     0.22980    0.84662   10.98987
       O     0.45401    1.42207   10.27427
      H1     0.05442    2.27104   10.44343
       H     1.28736    1.37199   18.06556
       O     0.74376    1.31698   17.26136
      H1     1.42422    1.34474   16.55815
       H    -4.57618   -0.40259   10.25951
       O    -3.69684   -0.78047   10.05963
      H1    -3.43486   -1.18550   10.89544
       H     0.15067    2.99008   13.07729
       O     0.58608    2.87014   13.93578
      H1     0.30384    3.69603   14.41111
       H    -1.46569   -5.16290   13.83006
       O    -1.39578   -4.29048   13.45446
      H1    -0.56623   -3.94772   13.77951
       H    -3.30018   -0.24069   13.45532
       O    -3.52408    0.45767   14.06854
      H1    -2.65787    0.78862   14.34689
       H     2.50995   -3.84434   13.21491
       O     3.14840   -3.45764   12.59768
      H1     3.12744   -4.08558   11.86549
       H     0.74731    1.03141   12.89003
       O     0.15673    0.28837   12.69969
      H1     0.72282   -0.40319   12.28810
       H    -0.69551   -1.73451   18.24757
       O    -1.05548   -0.98417   17.78455
      H1    -0.39892   -0.29536   18.02549
       H    -0.55644   -1.53910   15.15150
       O    -1.07340   -1.44878   14.33931
      H1    -0.63993   -0.77619   13.83199
       H    -3.22469   -2.72528   15.52579
       O    -3.17342   -3.66451   15.37592
      H1    -2.49385   -3.74512   14.69090
       H     0.73579   -0.84197   16.31527
       O     1.40767   -1.44946   15.95911
      H1     1.97154   -0.85871   15.42282
       H     3.40606    0.65825   15.79381
       O     2.88536    0.81591   14.99758
      H1     3.12094    1.71123   14.74224
       H    -0.58534    1.72209   15.15593
       O    -1.43810    1.42313   15.46871
      H1    -1.52506    1.92467   16.30429
       H     0.71136   -2.40953   10.89418
       O     1.03054   -1.50347   10.69490
      H1     1.88023   -1.66317   10.25578

