60
frame 1 | Written by MDAnalysis XYZWriter (release 2.4.3)
       H   -12.30255  -11.41097   15.24489
       O   -11.61200  -10.74445   15.47233
      H1   -10.96612  -11.30575   15.91807
       H   -10.46709  -11.01320   12.33803
       O   -10.91723  -11.85015   12.53989
      H1   -11.82399  -11.57213   12.75804
       H   -13.89755  -13.55790   15.93370
       O   -13.51232  -12.97235   15.29825
      H1   -13.85989  -13.34324   14.47494
       H   -15.21329  -14.14361   17.57007
       O   -15.27995  -14.51607   16.67383
      H1   -16.09155  -14.12214   16.31612
       H    -8.97840   -5.77240   18.70602
       O    -8.79228   -5.82043   17.75497
      H1    -8.71008   -6.75732   17.63582
       H   -11.60012   -8.77090   15.38018
       O   -11.96665   -7.93063   15.06349
      H1   -11.51414   -7.22628   15.57131
       H    -8.77852  -12.19044   17.07102
       O    -8.73534  -11.77031   16.21737
      H1    -8.59138  -10.82754   16.39165
       H   -12.04027   -9.79729   17.58953
       O   -11.50833   -9.56956   18.35002
      H1   -11.78688  -10.23802   18.97714
       H   -11.69998   -6.51672   18.02884
       O   -11.32010   -6.09294   17.27583
      H1   -10.37310   -6.00933   17.52343
       H   -13.99501   -8.71297   18.51732
       O   -14.70630   -9.34530   18.42880
      H1   -14.82067   -9.72433   19.29692
       H   -16.01726  -10.62036   14.15104
       O   -16.65230  -10.53605   13.40777
      H1   -16.09050  -10.69772   12.65098
       H   -10.86579   -7.18408   13.65056
       O   -10.35505   -6.72168   12.96409
      H1   -10.84014   -5.91345   12.81120
       H   -10.82614  -13.40230   13.79458
       O   -11.06273  -14.10026   14.41455
      H1   -11.95823  -13.83217   14.66187
       H   -13.52614   -4.32086   15.89591
       O   -12.56841   -4.19013   15.83644
      H1   -12.23430   -4.73310   16.56112
       H    -6.68016   -9.49023   15.26953
       O    -7.18781   -9.23104   14.50055
      H1    -7.48574   -8.35474   14.72678
       H   -14.46429  -11.62044   15.94056
       O   -15.30971  -11.15739   15.99777
      H1   -15.06991  -10.51618   16.68284
       H    -8.37457   -8.97190   18.55897
       O    -8.89017   -9.12210   17.74072
      H1    -9.70149   -9.48477   18.06645
       H   -13.37597   -9.72976   12.47712
       O   -13.51508  -10.53813   13.04687
      H1   -13.81110  -10.09153   13.85063
       H   -10.35287  -14.21651   17.52926
       O   -10.67143  -13.66511   18.24817
      H1   -10.56117  -14.21914   19.02720
       H   -14.84651   -7.27566   15.67591
       O   -14.49733   -8.12944   15.31400
      H1   -13.57428   -7.94162   15.22901

