60
frame 0 | Written by MDAnalysis XYZWriter (release 2.4.3)
       H     4.93204  -16.72303    5.68968
       O     4.25655  -16.85130    6.39724
      H1     3.48710  -17.11648    5.85740
       H     6.22720  -15.60102    4.12199
       O     6.55374  -16.14890    4.83688
      H1     7.22730  -16.71817    4.44441
       H     6.33568  -17.65104   -0.61269
       O     6.47468  -17.09231   -1.34072
      H1     7.15747  -17.56495   -1.86646
       H     6.83298  -17.05549    1.75132
       O     6.21466  -17.66228    1.31203
      H1     6.12003  -18.39789    1.92145
       H     1.68362  -16.60275    3.49842
       O     2.62479  -16.57899    3.65217
      H1     2.86990  -17.49845    3.89564
       H     9.60361  -13.19473    4.46697
       O     9.81854  -13.92663    3.86254
      H1     8.96966  -14.07064    3.44771
       H     9.27828  -15.45585   -1.16700
       O     9.05187  -16.05714   -0.42496
      H1     8.14882  -16.37967   -0.63201
       H     8.78939  -18.42419    2.09840
       O     9.07575  -18.47028    1.18680
      H1     9.29251  -17.54886    0.90165
       H     9.10030  -18.69396    6.90307
       O     8.47597  -18.14015    7.36838
      H1     8.54516  -18.45312    8.27610
       H     4.50328  -14.30125    2.03377
       O     4.71339  -14.77898    2.84777
      H1     3.83914  -15.04718    3.15575
       H     5.95059  -12.62440    0.27455
       O     5.83080  -13.55612    0.40043
      H1     5.34857  -13.84534   -0.40101
       H     4.89281  -16.41224   -3.95488
       O     5.59210  -15.79766   -3.76280
      H1     6.10706  -16.34445   -3.16120
       H     2.70407  -15.14912    0.78033
       O     2.34957  -14.26880    0.88062
      H1     1.40827  -14.33342    0.69318
       H     6.95158  -13.88177    5.58604
       O     6.67569  -13.36990    4.84077
      H1     5.88032  -13.78819    4.52440
       H    11.22076  -17.16898    3.19462
       O    10.79709  -17.20483    4.04724
      H1    10.56340  -16.30672    4.28652
       H     4.14085  -16.74327    1.11666
       O     3.71209  -16.62995    0.22293
      H1     3.30684  -17.50320    0.12579
       H     4.40972  -15.22213   -1.21526
       O     4.46105  -14.42423   -1.74879
      H1     4.92791  -14.70900   -2.56375
       H     7.93939  -15.09011    1.07210
       O     7.39925  -15.16113    1.86699
      H1     6.53640  -14.80782    1.56052
       H     8.45770  -19.03568    3.66505
       O     8.36606  -18.07793    3.60809
      H1     9.29200  -17.89006    3.81317
       H     4.78377  -18.02552   -2.82695
       O     3.82436  -17.95063   -2.99168
      H1     3.66344  -18.41169   -3.82397

