60
frame 1 | Written by MDAnalysis XYZWriter (release 2.4.3)
       H    -9.77611   18.23145   18.24338
       O   -10.33965   18.97040   18.02178
      H1   -11.24147   18.64822   18.15739
       H   -11.20210   12.93300   13.82931
       O   -10.56735   13.63557   13.89452
      H1   -10.77678   14.11611   14.69692
       H   -10.21198    9.59566   17.47514
       O    -9.40829    9.86922   16.97066
      H1    -9.56990   10.82933   16.79977
       H   -12.31898    8.19911   17.47613
       O   -11.87258    8.90067   17.97459
      H1   -12.15798    8.71082   18.87545
       H   -12.85574   14.81817   18.47576
       O   -13.38467   14.34543   17.83623
      H1   -13.24796   14.88907   17.07801
       H    -8.85134   13.29209   17.50334
       O    -8.38069   13.61256   18.28648
      H1    -8.92762   13.28560   19.00240
       H    -7.10248   16.43952   17.96959
       O    -6.71149   16.34804   17.09526
      H1    -6.78386   17.24014   16.73877
       H    -5.27205   14.38874   17.79563
       O    -5.68183   13.51147   17.70387
      H1    -6.52718   13.62162   18.12341
       H    -3.52025   15.76923   16.28311
       O    -4.29659   15.76513   15.75713
      H1    -5.02229   15.93487   16.36855
       H    -7.46378   13.44577   13.73161
       O    -6.85212   12.77048   13.38652
      H1    -7.05311   12.65650   12.44201
       H   -10.14671    9.86763   15.30705
       O   -10.77395    9.79634   14.59486
      H1   -11.44409    9.17868   14.95128
       H   -12.13008   11.34669   17.55543
       O   -12.14048   11.91542   16.77581
      H1   -12.59757   12.72911   16.99792
       H    -4.02418   14.13805   18.47489
       O    -3.80970   15.02016   18.85123
      H1    -2.89147   14.92742   19.08967
       H    -6.97372   19.36913   18.32993
       O    -7.47831   18.59329   18.62286
      H1    -6.78875   18.09490   19.09920
       H    -9.18844   15.49625   18.71199
       O    -9.60148   16.25644   18.26637
      H1    -9.76388   15.98488   17.34031
       H    -8.48291    8.47450   16.92228
       O    -8.01588    7.65138   16.69942
      H1    -7.69753    7.37160   17.56917
       H    -5.26683   11.44508   17.15134
       O    -4.86098   10.60509   16.90894
      H1    -5.60100    9.98098   16.86799
       H    -9.46985   12.98753   15.35567
       O    -9.59113   12.48159   16.15875
      H1   -10.55879   12.40454   16.20682
       H   -11.85276   15.65816   15.68222
       O   -10.88580   15.56078   15.77757
      H1   -10.55169   16.22689   15.17873
       H    -7.53562   15.01713   15.62363
       O    -7.65997   14.91181   14.70045
      H1    -8.47140   15.38833   14.51700

