60
frame 0 | Written by MDAnalysis XYZWriter (release 2.4.3)
       H   -11.46601  -15.75430   -8.96746
       O   -11.40046  -15.96109   -9.89397
      H1   -12.16465  -16.53383  -10.04908
       H   -13.93701  -14.19407   -5.16903
       O   -13.68010  -14.25021   -6.09786
      H1   -13.85026  -13.36760   -6.47584
       H   -18.24042  -13.61601   -4.03457
       O   -18.51306  -12.72559   -3.74876
      H1   -17.72976  -12.20755   -3.89234
       H   -18.97327  -13.43458  -10.49434
       O   -18.35164  -12.82306  -10.09358
      H1   -17.82749  -13.40957   -9.51427
       H   -14.48505  -10.90197  -11.21481
       O   -15.29898  -11.03166  -10.68239
      H1   -16.00034  -10.85602  -11.30493
       H   -17.12454  -16.37287   -3.02344
       O   -17.68255  -16.80354   -3.67273
      H1   -17.58167  -17.74490   -3.46167
       H   -16.10254  -12.50744   -6.33713
       O   -15.95182  -11.57040   -6.34310
      H1   -16.73959  -11.17631   -6.76624
       H   -17.57085  -15.26138   -8.78427
       O   -16.99645  -14.48406   -8.62586
      H1   -16.36111  -14.51564   -9.36466
       H   -13.89422  -11.19448   -6.78073
       O   -12.92381  -11.20294   -6.79215
      H1   -12.75180  -11.07546   -7.73170
       H   -18.81547  -17.27480  -12.50573
       O   -18.66845  -16.86798  -11.64646
      H1   -18.85458  -17.55639  -11.00630
       H   -12.64058  -14.30348  -10.69311
       O   -12.85089  -13.40019  -10.92893
      H1   -13.77279  -13.38425  -10.79496
       H   -14.89647  -15.63205   -6.39948
       O   -15.39336  -16.44728   -6.22234
      H1   -15.28188  -16.97109   -7.05620
       H   -12.09952  -14.80495   -6.82515
       O   -11.30263  -15.17231   -7.24249
      H1   -10.70012  -15.22569   -6.45065
       H   -17.78171  -15.49789  -13.55459
       O   -18.31235  -14.87987  -14.03708
      H1   -18.09386  -15.10149  -14.97237
       H   -15.66891  -17.00206  -10.63380
       O   -15.40842  -16.76678   -9.74583
      H1   -15.74161  -17.49487   -9.20108
       H   -17.72675  -12.42793  -11.71170
       O   -17.46801  -12.12576  -12.59781
      H1   -17.76831  -12.83496  -13.15781
       H   -17.69736  -14.61171   -6.86273
       O   -17.50082  -14.66987   -5.92497
      H1   -17.02307  -15.50297   -5.83110
       H   -14.39528  -18.54695   -3.92013
       O   -14.72674  -18.92095   -4.77249
      H1   -15.13940  -18.14792   -5.19967
       H   -17.01995  -16.57697  -11.99807
       O   -16.18972  -16.22133  -12.34658
      H1   -16.16336  -15.32997  -11.98513
       H   -15.95470  -13.03947  -11.35138
       O   -15.44787  -13.84595  -11.28232
      H1   -15.13154  -13.95332  -12.18525

