60
frame 0 | Written by MDAnalysis XYZWriter (release 2.4.3)
       H   -13.03673    5.27214  -13.63854
       O   -12.52096    4.56156  -13.26341
      H1   -11.58722    4.77898  -13.49170
       H   -10.17648    8.50321  -16.84256
       O   -10.58689    9.39752  -16.90090
      H1   -11.51915    9.25286  -16.67637
       H   -10.91357    9.73583  -14.88353
       O   -11.12299    9.49808  -13.97322
      H1   -10.50973    8.75593  -13.84027
       H   -18.18274    3.94692  -17.89337
       O   -17.65178    4.10125  -18.68421
      H1   -17.38781    5.02366  -18.58308
       H   -15.91635    8.94888  -11.50840
       O   -15.20573    9.10448  -12.15088
      H1   -14.75457    9.85855  -11.74799
       H   -13.06303    6.77218  -12.24588
       O   -13.87399    6.83012  -12.73893
      H1   -14.20999    7.72449  -12.56645
       H   -13.93453    4.15097  -17.68331
       O   -13.16441    4.69330  -17.39254
      H1   -13.40380    5.57509  -17.73041
       H   -14.45210    9.34005  -16.34874
       O   -14.95120    8.65655  -16.84351
      H1   -15.83047    8.57331  -16.42025
       H   -14.11943    7.20078  -16.12940
       O   -13.88464    6.51972  -15.47781
      H1   -13.75815    7.01384  -14.66763
       H   -12.67807    9.80912  -15.09156
       O   -12.82155   10.29252  -15.92977
      H1   -12.45053   11.19284  -15.74520
       H   -19.38910    9.20511  -13.04677
       O   -18.75675    8.47246  -12.97712
      H1   -19.10082    7.84047  -13.59418
       H   -17.97840   12.81099  -15.94187
       O   -17.01316   12.80945  -15.73819
      H1   -16.89270   11.95131  -15.32576
       H   -18.06696   11.18822  -11.50242
       O   -17.42811   11.70838  -12.03318
      H1   -17.37041   11.18995  -12.86102
       H   -16.53966   11.72322  -18.67289
       O   -15.76880   12.07048  -18.19315
      H1   -16.17199   12.29910  -17.35666
       H   -15.26932    4.99423  -16.00937
       O   -16.17007    5.24660  -16.30759
      H1   -16.51357    4.46295  -16.76777
       H   -16.85953    7.75458  -18.75062
       O   -16.77690    6.80609  -18.70644
      H1   -16.37054    6.63682  -17.85182
       H   -16.34497    5.26280  -14.61310
       O   -16.25055    5.10152  -13.65308
      H1   -15.42891    5.56031  -13.44627
       H   -16.21985    9.81929  -13.65737
       O   -16.70975   10.35133  -14.35932
      H1   -17.40382    9.75006  -14.64217
       H   -18.28919    7.84255  -15.78729
       O   -17.80036    8.57903  -16.22491
      H1   -18.51636    9.19231  -16.42710
       H   -17.82797    8.98796  -10.60208
       O   -17.24385    8.22549  -10.62693
      H1   -17.47668    7.72090  -11.43301

