60
frame 0 | Written by MDAnalysis XYZWriter (release 2.4.3)
       H     1.93843  -10.87414    3.67040
       O     1.14914  -10.35057    3.45357
      H1     0.81874  -10.71396    2.62146
       H    -3.81661   -6.45110    3.58240
       O    -3.87213   -6.33341    2.63143
      H1    -4.06634   -5.39975    2.58077
       H    -1.07462   -7.11477    5.39239
       O    -0.97058   -6.18984    5.67580
      H1    -1.18443   -5.67377    4.86049
       H    -3.97333  -13.16499    5.55298
       O    -3.06642  -13.08038    5.20722
      H1    -2.78416  -12.17955    5.49854
       H     2.39469   -7.33307    5.02134
       O     1.71941   -7.61030    4.39130
      H1     2.18577   -8.15725    3.75851
       H    -1.89144  -10.11116    6.35576
       O    -2.85636  -10.17489    6.54354
      H1    -2.89363  -10.03096    7.45463
       H    -3.14316   -9.61052    3.35767
       O    -2.28964   -9.27347    3.07217
      H1    -1.91336   -9.91902    2.48290
       H    -0.92969   -8.41157    8.52555
       O    -1.09435   -9.36287    8.63496
      H1    -0.66890   -9.58791    9.43342
       H    -3.40532   -8.11033    5.45219
       O    -3.98959   -7.36568    5.25618
      H1    -4.87820   -7.72471    5.40250
       H     1.63557   -8.53313    7.81592
       O     1.37321   -7.62185    8.02238
      H1     1.71885   -7.09116    7.30247
       H    -0.12005  -10.94403    4.66045
       O    -0.62250  -11.57428    5.20260
      H1    -0.03075  -11.89659    5.91980
       H    -2.68444  -12.20111    3.31918
       O    -2.54681  -12.44384    2.39817
      H1    -1.66416  -12.84992    2.34682
       H    -0.17570   -9.65568    0.15497
       O     0.10495  -10.18288    0.93150
      H1     0.44216  -11.01186    0.57603
       H     1.34683   -5.68660    5.66546
       O     2.00564   -5.70153    6.37869
      H1     2.19394   -4.79555    6.61930
       H     0.76557   -7.43381    1.65521
       O     0.76915   -6.55351    2.02319
      H1     0.89679   -6.69109    2.95874
       H    -1.06824   -9.02682    4.50222
       O    -0.81844   -8.74395    5.36883
      H1     0.11135   -8.93377    5.44411
       H    -2.37539   -5.82480    1.29919
       O    -1.58140   -5.95629    0.77359
      H1    -0.90193   -6.16634    1.42005
       H     0.41929  -10.04994    7.87340
       O     1.40797  -10.21676    7.76824
      H1     1.67354  -10.41180    8.68801
       H     0.42041  -13.42730    2.77511
       O     0.51042  -13.74442    3.67279
      H1     0.18168  -13.06997    4.27012
       H    -5.50280   -9.26201    3.81437
       O    -5.00642   -9.81951    3.16704
      H1    -4.93869   -9.28136    2.36521

