60
frame 0 | Written by MDAnalysis XYZWriter (release 2.4.3)
       H    -8.86912   -5.36389   -6.03408
       O    -9.55783   -5.85550   -6.47995
      H1    -9.21069   -6.75887   -6.32615
       H   -10.75874   -3.91868   -4.13644
       O   -11.53584   -3.36415   -4.28746
      H1   -11.62389   -3.37891   -5.27273
       H   -12.90379   -6.09563   -5.19570
       O   -13.33643   -5.49002   -4.54617
      H1   -12.65512   -4.78980   -4.49688
       H    -5.00677    0.35827   -5.54761
       O    -5.38152   -0.52865   -5.49578
      H1    -5.90666   -0.47065   -4.68963
       H    -7.14357   -0.28630   -2.71923
       O    -6.68792   -0.86656   -3.32680
      H1    -7.09868   -1.71958   -3.17676
       H   -12.55955   -2.17173   -6.63665
       O   -11.93934   -2.80984   -6.98437
      H1   -12.46082   -3.57572   -7.22457
       H    -8.08581   -3.88634   -3.39334
       O    -7.93085   -3.36024   -2.59790
      H1    -7.66564   -4.08403   -2.01558
       H    -8.00154   -2.74852   -6.78076
       O    -8.81678   -3.19685   -6.47330
      H1    -9.35564   -2.47491   -6.06562
       H   -11.28248   -2.28920   -9.47811
       O   -10.38131   -2.59672   -9.28655
      H1   -10.53199   -3.10951   -8.50323
       H    -3.78882   -3.07837   -7.11325
       O    -4.54272   -3.67157   -6.92534
      H1    -5.31648   -3.26857   -7.34709
       H    -8.73924   -5.72708   -8.04103
       O    -8.43150   -5.77836   -8.97955
      H1    -8.11333   -6.70144   -9.07691
       H    -9.41064   -2.99932   -1.97505
       O   -10.23470   -2.55283   -1.64043
      H1   -10.95481   -3.02340   -2.09759
       H   -10.82786   -1.70900   -4.85257
       O   -10.23938   -1.07539   -5.35986
      H1   -10.00171   -0.45615   -4.68254
       H    -9.44195   -0.44871   -8.63790
       O    -9.62628   -0.00206   -7.78856
      H1   -10.01620   -0.66840   -7.21430
       H    -8.86637    1.20838   -4.51110
       O    -9.69986    1.32375   -4.04515
      H1    -9.45256    2.05890   -3.46998
       H    -6.68238   -0.91920   -8.03267
       O    -6.43838   -1.76693   -7.68784
      H1    -5.85635   -1.60518   -6.95443
       H    -9.92315   -6.05254   -4.44594
       O    -9.79398   -5.44155   -3.68683
      H1   -10.09929   -5.99928   -2.92898
       H    -6.91008    0.13320   -5.94512
       O    -7.64199    0.77080   -6.01464
      H1    -8.27666    0.33784   -6.60074
       H   -11.05046   -6.03927   -7.36653
       O   -11.70747   -5.67233   -7.96927
      H1   -11.31610   -5.65179   -8.84601
       H   -12.20650   -1.59259   -3.24813
       O   -11.70016   -0.77451   -3.11981
      H1   -10.94889   -1.06580   -2.61730

