60
frame 0 | Written by MDAnalysis XYZWriter (release 2.4.3)
       H    17.67793   -7.09151    4.40657
       O    18.12645   -6.86408    5.22727
      H1    18.29474   -5.93148    5.11295
       H    14.41129  -11.95882    6.62115
       O    13.63214  -11.77784    6.10289
      H1    13.63875  -12.47502    5.43701
       H    14.80457   -5.69778   10.63591
       O    15.68054   -5.41390   10.28819
      H1    16.20043   -6.21002   10.37400
       H    14.03868   -8.47493    6.92031
       O    14.17211   -8.67137    7.84061
      H1    13.91879   -7.86995    8.30227
       H    13.85349   -9.70965    3.67328
       O    13.90138   -9.51161    4.60362
      H1    13.81295  -10.36975    5.04986
       H    15.38752   -3.14850    5.29087
       O    14.99284   -4.01925    5.49007
      H1    15.54266   -4.42937    6.18321
       H    10.17485   -8.28198    6.60690
       O    10.15515   -8.57007    7.54900
      H1    10.69516   -9.35487    7.54936
       H    15.01266   -7.42993    4.63842
       O    14.45869   -6.83640    5.20298
      H1    14.69634   -5.97167    4.87174
       H    13.55426   -6.10529    6.74511
       O    13.43151   -6.03056    7.69003
      H1    12.50489   -5.83208    7.74154
       H    17.49918   -7.75298    9.15847
       O    17.75519   -7.31628    9.99569
      H1    18.54031   -6.84277    9.78388
       H    14.41328   -8.30149   11.56204
       O    14.11989   -7.66806   10.91932
      H1    13.41194   -8.12309   10.43831
       H    14.60147  -11.22163   10.45599
       O    14.88620  -11.60587    9.61172
      H1    14.83335  -10.88483    8.99551
       H    12.15704   -7.75879    4.96120
       O    11.23190   -7.54962    5.13953
      H1    11.22525   -6.57828    5.18759
       H    11.75728  -10.78224    8.51021
       O    11.47065  -10.91297    7.62336
      H1    12.28859  -11.07936    7.12942
       H    16.32539   -8.38869    2.83341
       O    16.61231   -8.39006    3.76307
      H1    16.15743   -9.15426    4.11485
       H    10.50553  -11.13535    6.15639
       O     9.88904  -11.39441    5.48379
      H1    10.23715  -10.96814    4.67619
       H    15.90821   -5.49538    8.27006
       O    16.40351   -5.32386    7.46505
      H1    16.60480   -6.23470    7.16094
       H    15.97557   -8.23605    7.44792
       O    16.88561   -7.96078    7.56764
      H1    17.20593   -7.82387    6.66281
       H    11.11627   -8.86574   11.57037
       O    11.60160   -9.39884   10.94709
      H1    11.08046  -10.19894   10.92273
       H    10.47064   -6.96512    8.19708
       O    10.47462   -6.08784    8.58311
      H1     9.54910   -5.84495    8.53693

