60
frame 0 | Written by MDAnalysis XYZWriter (release 2.4.3)
       H    -1.23858  -14.87040   18.53344
       O    -1.87190  -15.55151   18.41675
      H1    -1.59483  -15.95488   17.55506
       H    -1.27662   -7.11082   17.39501
       O    -1.63569   -7.52536   16.62111
      H1    -1.52282   -8.44414   16.81078
       H    -4.29358  -15.05308   15.86853
       O    -4.52063  -15.22738   14.95498
      H1    -4.19466  -14.41466   14.55892
       H     1.61070  -10.20701   17.11452
       O     0.85439   -9.73264   16.75633
      H1     0.79484  -10.13996   15.87837
       H    -4.59188   -7.38967   14.71072
       O    -5.37432   -7.80960   15.10852
      H1    -6.00805   -7.08340   15.10193
       H    -1.07011  -15.54199   15.66905
       O    -0.63805  -16.25680   16.13269
      H1    -0.51700  -16.96804   15.45737
       H    -4.34903   -7.38389   18.10338
       O    -4.46373   -8.10986   18.69979
      H1    -5.40728   -8.39321   18.56611
       H    -7.68666  -10.52101   17.06448
       O    -7.20250  -11.05143   17.69897
      H1    -7.83594  -11.76096   17.93965
       H    -4.04103  -12.46143   13.09070
       O    -3.75316  -13.34363   12.89067
      H1    -3.08067  -13.48049   13.61356
       H    -5.67512  -14.51588   18.70847
       O    -4.75441  -14.51602   18.42218
      H1    -4.46969  -15.42628   18.62927
       H    -3.16721   -4.75967   16.94123
       O    -3.50275   -5.12556   17.77856
      H1    -2.89489   -4.80435   18.45565
       H     1.89078  -13.41884   16.08627
       O     2.02565  -12.63795   16.61025
      H1     2.56513  -12.92079   17.37704
       H    -2.75515  -10.95828   18.56278
       O    -2.49259  -10.13574   18.15903
      H1    -3.21511   -9.51816   18.38718
       H    -3.13991   -9.71199   12.82614
       O    -2.52976   -8.98629   12.71458
      H1    -2.73590   -8.60038   11.88287
       H    -1.23128  -13.30649   15.46691
       O    -1.55215  -13.90404   14.79449
      H1    -0.82880  -13.94592   14.14236
       H    -2.92774  -10.26257   16.47759
       O    -3.47448  -10.33618   15.67377
      H1    -4.27830   -9.85750   15.89820
       H    -5.90414  -11.80325   16.10861
       O    -5.67095  -11.79634   15.17708
      H1    -4.71350  -11.64835   15.21158
       H     0.36708  -12.44582   16.82777
       O    -0.57847  -12.37416   17.02482
      H1    -0.76793  -11.49147   16.67548
       H    -2.93856   -7.56013   13.83325
       O    -2.95808   -6.74504   14.31233
      H1    -2.70824   -6.97314   15.25101
       H     0.81141  -10.14487   13.89813
       O    -0.01532  -10.56417   14.20031
      H1    -0.68540  -10.01660   13.79586

