60
frame 0 | Written by MDAnalysis XYZWriter (release 2.4.3)
       H     4.79324    9.68006   -1.62171
       O     4.06348    9.15920   -1.94086
      H1     3.58588    8.78529   -1.15607
       H     0.97946    2.46959   -0.42921
       O     1.77431    2.88059   -0.07961
      H1     1.64271    3.79274   -0.34001
       H     4.82159    9.12151    5.49498
       O     4.25352    8.68891    4.83197
      H1     3.85670    7.95207    5.32158
       H     6.73768    6.17502    4.21660
       O     7.66229    6.25299    3.88594
      H1     8.18061    6.20312    4.68471
       H     0.08786    5.43199    0.56200
       O    -0.68552    5.40441   -0.03447
      H1    -0.63788    4.56542   -0.45775
       H     6.57098    8.50807    1.53556
       O     6.04375    7.89278    1.00384
      H1     6.76979    7.38580    0.58572
       H     4.40187    5.16224    1.50178
       O     3.97622    6.02195    1.63709
      H1     4.69866    6.63231    1.43575
       H     3.46602    5.99745    3.62815
       O     3.39792    6.06662    4.58545
      H1     2.52690    5.69658    4.80342
       H     4.88300    5.05946    4.25185
       O     5.49186    4.41358    3.88827
      H1     6.35512    4.66990    4.22856
       H     2.17442    8.15250    2.54433
       O     2.37712    9.05986    2.77518
      H1     2.98029    8.98683    3.53960
       H     2.85461    5.52258    0.38209
       O     2.29568    5.49444   -0.38562
      H1     2.84108    5.72441   -1.14769
       H     1.34027    8.76935    0.31380
       O     1.87421    8.29571   -0.34209
      H1     1.66213    7.33268   -0.24632
       H     2.04761    3.04021    3.31325
       O     2.31002    3.52147    2.49862
      H1     2.03924    2.96246    1.76744
       H     6.79454    4.84358   -0.40363
       O     6.64253    4.90942   -1.34219
      H1     7.06672    4.16916   -1.75161
       H     4.93745    9.78324    3.17574
       O     5.25814   10.41051    2.50407
      H1     4.65177   10.20617    1.74972
       H     5.44860    3.82556    2.33970
       O     4.97021    3.36773    1.62879
      H1     4.15393    3.10856    2.11528
       H     4.92836    5.01599   -2.14856
       O     4.17677    5.11280   -2.69162
      H1     3.71869    4.24458   -2.66698
       H     0.10324    7.59901    2.10093
       O     0.78766    6.92636    2.23085
      H1     0.58752    6.47188    3.02071
       H     5.26022    2.92315   -1.14218
       O     4.37637    2.53964   -1.32827
      H1     3.83463    2.85492   -0.62661
       H     2.86558    9.76801    0.82694
       O     3.17596   10.68819    0.63872
      H1     2.75897   10.91676   -0.19352

