60
frame 0 | Written by MDAnalysis XYZWriter (release 2.4.3)
       H    -3.81661   -6.45110    3.58240
       O    -3.87213   -6.33341    2.63143
      H1    -4.06634   -5.39975    2.58077
       H    -1.15064   -7.80208   -2.19133
       O    -0.93441   -7.81773   -3.14873
      H1     0.03395   -7.60114   -3.18203
       H    -4.88677   -2.84841   -0.58104
       O    -4.24997   -2.36511   -1.09549
      H1    -4.61688   -2.36019   -2.00226
       H    -3.14316   -9.61052    3.35767
       O    -2.28964   -9.27347    3.07217
      H1    -1.91336   -9.91902    2.48290
       H    -5.99070   -8.21641    0.43703
       O    -5.06728   -8.26354    0.81458
      H1    -5.04472   -7.51970    1.44310
       H    -7.35871   -8.12286   -1.33586
       O    -7.53318   -7.76156   -0.46100
      H1    -7.34951   -6.81144   -0.53868
       H    -8.08581   -3.88634   -3.39334
       O    -7.93085   -3.36024   -2.59790
      H1    -7.66564   -4.08403   -2.01558
       H    -5.91939   -6.44379   -3.94802
       O    -6.69187   -6.03734   -4.45192
      H1    -6.55723   -6.34545   -5.36983
       H    -2.25550   -9.10329   -0.42238
       O    -1.53356   -8.47283   -0.56300
      H1    -1.81843   -7.68169   -0.08500
       H    -4.11886   -7.52605   -4.16055
       O    -4.22294   -6.82153   -3.50077
      H1    -3.56145   -6.20351   -3.79360
       H    -2.67175   -3.05548   -0.74131
       O    -1.76247   -3.40884   -0.52729
      H1    -1.93486   -4.25148   -0.08337
       H    -4.39697   -6.47129   -1.74043
       O    -4.38701   -6.14834   -0.81500
      H1    -4.49741   -6.95920   -0.33287
       H    -7.55596   -4.84764   -0.05333
       O    -6.95329   -5.05094   -0.80249
      H1    -6.05921   -5.03337   -0.44557
       H    -6.37472   -3.33383    1.28234
       O    -5.49312   -3.73179    1.18817
      H1    -5.05780   -3.41425    2.01501
       H    -2.73608  -11.44543    0.81327
       O    -2.93865  -10.91927    0.04770
      H1    -3.70920  -11.35720   -0.30998
       H    -8.59319   -8.52413    0.89649
       O    -9.12433   -8.39421    1.65885
      H1    -9.87055   -7.80788    1.45026
       H    -7.48468   -9.77666   -3.33035
       O    -7.23845   -8.91834   -2.93810
      H1    -6.45927   -8.70979   -3.46942
       H    -2.37539   -5.82480    1.29919
       O    -1.58140   -5.95629    0.77359
      H1    -0.90193   -6.16634    1.42005
       H    -5.50280   -9.26201    3.81437
       O    -5.00642   -9.81951    3.16704
      H1    -4.93869   -9.28136    2.36521
       H    -6.18774  -11.07379   -1.14858
       O    -6.73217  -11.41143   -0.42066
      H1    -7.49709  -11.69858   -0.94937

