60
frame 0 | Written by MDAnalysis XYZWriter (release 2.4.3)
       H   -13.57745   -0.12097   -5.87499
       O   -13.88767   -1.02690   -6.05371
      H1   -14.34515   -1.38612   -5.27915
       H   -10.75874   -3.91868   -4.13644
       O   -11.53584   -3.36415   -4.28746
      H1   -11.62389   -3.37891   -5.27273
       H   -13.19818    1.23481   -8.81223
       O   -14.02805    1.04937   -9.27982
      H1   -13.95252    1.47390  -10.16723
       H    -9.38019   -1.96689  -10.80442
       O    -9.14880   -1.15708  -11.30093
      H1    -8.24880   -1.29232  -11.57453
       H    -9.89951    0.62877  -10.17240
       O    -9.40106    1.43682  -10.31095
      H1    -9.19317    1.36914  -11.24930
       H    -7.80191    0.94857   -9.64049
       O    -6.96723    0.58063   -9.32538
      H1    -6.53166    1.41288   -9.15340
       H   -12.55955   -2.17173   -6.63665
       O   -11.93934   -2.80984   -6.98437
      H1   -12.46082   -3.57572   -7.22457
       H    -8.00154   -2.74852   -6.78076
       O    -8.81678   -3.19685   -6.47330
      H1    -9.35564   -2.47491   -6.06562
       H   -11.28248   -2.28920   -9.47811
       O   -10.38131   -2.59672   -9.28655
      H1   -10.53199   -3.10951   -8.50323
       H   -12.83210    2.16876   -4.73992
       O   -12.46010    1.50145   -5.29338
      H1   -11.61614    1.30588   -4.89557
       H   -10.10852    4.99090   -7.90351
       O   -10.06025    4.11303   -7.47949
      H1   -10.50240    3.57801   -8.14337
       H   -12.18597    1.98471   -7.19176
       O   -11.76326    1.79783   -8.02927
      H1   -11.34155    0.94454   -7.87087
       H   -13.23700   -1.64064  -10.74250
       O   -13.00844   -1.71538   -9.81656
      H1   -13.11675   -0.80994   -9.48480
       H   -10.82786   -1.70900   -4.85257
       O   -10.23938   -1.07539   -5.35986
      H1   -10.00171   -0.45615   -4.68254
       H    -9.44195   -0.44871   -8.63790
       O    -9.62628   -0.00206   -7.78856
      H1   -10.01620   -0.66840   -7.21430
       H    -8.86637    1.20838   -4.51110
       O    -9.69986    1.32375   -4.04515
      H1    -9.45256    2.05890   -3.46998
       H    -6.68238   -0.91920   -8.03267
       O    -6.43838   -1.76693   -7.68784
      H1    -5.85635   -1.60518   -6.95443
       H    -6.91008    0.13320   -5.94512
       O    -7.64199    0.77080   -6.01464
      H1    -8.27666    0.33784   -6.60074
       H   -12.20650   -1.59259   -3.24813
       O   -11.70016   -0.77451   -3.11981
      H1   -10.94889   -1.06580   -2.61730
       H    -7.72498    2.37789   -6.77024
       O    -7.53661    3.21923   -7.21751
      H1    -8.42315    3.56673   -7.31076

