60
frame 0 | Written by MDAnalysis XYZWriter (release 2.4.3)
       H    12.80112    5.07006   11.43694
       O    13.10202    5.38540   10.57115
      H1    12.48284    4.99797    9.94183
       H    14.22940    3.67087   10.45920
       O    14.01281    2.75325   10.43715
      H1    14.80128    2.33217   10.81790
       H    11.02797   10.06003   12.76039
       O    10.72891    9.54506   13.51237
      H1    11.49131    9.45836   14.09259
       H    17.37269    9.23699   13.61494
       O    17.70830    8.39097   13.90249
      H1    17.10308    7.77558   13.49585
       H    15.70080    3.27295   13.45241
       O    15.09706    3.31702   14.17281
      H1    15.59236    3.93476   14.73145
       H    12.60545   10.60563   11.44667
       O    11.65857   10.48168   11.25242
      H1    11.32672   11.38300   11.21621
       H    14.34843    7.03993    9.67485
       O    15.25567    7.34172    9.57083
      H1    15.65419    7.15794   10.42686
       H    16.82399    5.64226   12.16106
       O    16.16185    6.31380   12.09013
      H1    15.47418    6.09756   12.75856
       H    15.81416    7.93166   17.06347
       O    15.35376    7.11199   16.83001
      H1    14.60703    7.11802   17.43048
       H    15.05741    9.89532   11.38219
       O    14.22358    9.98254   11.86586
      H1    13.94194    9.10879   12.14821
       H    10.60389    6.73646   14.47828
       O     9.69669    6.97371   14.26624
      H1     9.77041    7.87642   13.90093
       H    12.19500    7.91128   12.47516
       O    13.05595    7.52273   12.29582
      H1    12.83966    6.85199   11.63307
       H    13.92795    6.87557   13.83177
       O    14.64630    6.47954   14.34842
      H1    14.81950    7.10966   15.06198
       H    12.54232    5.64079   15.20316
       O    12.05156    6.34980   15.62577
      H1    12.29811    6.29622   16.55353
       H    13.39146    4.58415   13.59761
       O    12.53530    4.64725   13.16455
      H1    12.28578    3.71060   13.12980
       H    12.53894    8.17419   15.69921
       O    12.60537    9.09741   15.41254
      H1    12.54387    9.60620   16.23083
       H    15.89680    4.17909   16.86572
       O    16.29339    4.62541   16.09453
      H1    15.94679    5.51717   16.23601
       H    18.49593    7.85417   17.23421
       O    18.04262    8.64333   16.88499
      H1    17.53938    8.25531   16.14037
       H    15.14481   11.58865   14.59987
       O    14.92402   11.88476   13.71454
      H1    14.77063   11.01745   13.26004
       H    10.12337    5.71100   12.57179
       O    10.23222    5.76140   11.63933
      H1    10.18645    6.68264   11.45729

