60
frame 0 | Written by MDAnalysis XYZWriter (release 2.4.3)
       H     7.46795    8.17290    9.38877
       O     8.10312    8.31515    8.63838
      H1     8.89935    8.53419    9.13717
       H     5.38883    5.54738   17.74721
       O     5.33724    5.92747   16.84046
      H1     4.36939    5.92278   16.69652
       H     5.36205    6.19298   13.25225
       O     5.01608    6.43699   12.38136
      H1     5.05544    5.53245   11.92367
       H     4.99787   10.48188   12.14057
       O     4.95307   10.66603   11.20313
      H1     3.99910   10.79818   11.04127
       H     7.39230    8.17033   14.73315
       O     7.17536    8.10545   15.67082
      H1     6.58464    7.35472   15.75507
       H     5.64023    7.51792   11.20592
       O     6.20541    8.08285   10.61189
      H1     5.81308    8.97356   10.64384
       H     3.04943    6.85433   11.92477
       O     2.45339    6.56671   11.21268
      H1     2.30552    7.34451   10.69205
       H     5.28457    3.14612    9.81745
       O     5.73634    2.74498    9.07420
      H1     5.47196    1.82186    9.03426
       H     2.39152    7.34246    7.35106
       O     2.76853    8.18046    7.70293
      H1     3.49209    7.75622    8.21055
       H     3.28249    5.10296   11.01668
       O     3.88370    4.36351   10.94125
      H1     3.69624    4.07213   10.03268
       H     5.44747    6.48077    7.73694
       O     5.02681    6.57989    8.61836
      H1     5.77241    6.67012    9.24139
       H     3.18885    2.38661   11.26963
       O     3.00040    1.43893   11.19939
      H1     2.06198    1.47193   10.96394
       H     1.48059    7.77963   13.40190
       O     2.12925    7.97134   14.07378
      H1     2.57531    8.77857   13.74810
       H     2.60040    6.79092   15.36499
       O     2.85546    6.07427   15.97395
      H1     2.83681    5.28047   15.43261
       H     3.52006    4.23909   13.84842
       O     3.09594    3.64289   14.48865
      H1     2.16209    3.62492   14.17873
       H     4.41802   10.05072   14.36046
       O     3.76748   10.14796   13.62698
      H1     3.28030   10.98043   13.87562
       H     6.85035    4.62481   14.42196
       O     5.93000    4.93037   14.44743
      H1     5.75379    5.04092   15.39519
       H     7.27551    9.19480   12.89208
       O     7.40098    8.24584   13.04243
      H1     6.82716    7.90542   12.35976
       H     7.01946    4.92524   11.48182
       O     7.45112    5.12955   10.63060
      H1     8.34108    5.43436   10.88633
       H     9.00544    5.24805   14.43219
       O     8.62527    4.37475   14.30807
      H1     8.68108    3.98174   15.16392

