60
frame 0 | Written by MDAnalysis XYZWriter (release 2.4.3)
       H    18.72466    9.80762   -0.54069
       O    18.99047    9.17555   -1.21971
      H1    18.55201    9.51908   -2.01248
       H    19.19441    6.37965   -3.62778
       O    19.09693    6.94930   -4.41118
      H1    18.13441    6.93864   -4.52929
       H    19.09040   13.38907   -8.09744
       O    18.33294   13.93676   -8.27348
      H1    18.23972   13.83558   -9.25895
       H    18.72042    9.87306   -9.57943
       O    18.94994   10.20496  -10.48025
      H1    18.49350    9.55564  -11.04517
       H    14.22518   11.79723   -8.53052
       O    13.30827   11.60804   -8.41580
      H1    13.25114   10.64516   -8.31165
       H    16.46556    6.36140   -7.65634
       O    17.35052    6.59889   -7.83456
      H1    17.79447    6.09996   -7.19703
       H    16.51332    8.92156   -5.52404
       O    16.95422    9.79559   -5.60230
      H1    17.55285    9.65061   -6.35928
       H    17.55470   10.41466   -3.84949
       O    17.87412   10.83389   -3.03409
      H1    18.38492   11.63522   -3.26565
       H    15.36339    9.56599   -8.38063
       O    16.04313   10.09522   -8.82491
      H1    16.83596    9.98250   -8.28288
       H    16.01977   10.95072   -2.33338
       O    15.18668   11.25360   -1.94540
      H1    15.44744   11.70723   -1.14979
       H    16.09119   12.29748   -8.71913
       O    15.48681   12.90079   -9.20895
      H1    15.58144   13.74909   -8.80578
       H    15.60861    9.02238   -2.10863
       O    15.77051    8.13817   -2.47243
      H1    16.12024    7.62216   -1.72354
       H    18.91997    6.38017  -10.73552
       O    17.97991    6.56368  -10.49977
      H1    17.93470    6.59641   -9.52924
       H    16.08867   13.52889   -5.94129
       O    16.19514   14.31912   -6.49540
      H1    16.96960   14.11278   -7.04159
       H    13.87392    8.94213   -6.85661
       O    13.77242    8.80572   -7.83022
      H1    14.00666    7.86669   -7.90805
       H    15.34531   11.09683   -4.76671
       O    15.13149   12.02985   -4.90565
      H1    15.01420   12.38028   -3.98629
       H    16.20704    7.81803   -4.02339
       O    16.23385    7.35255   -4.89247
      H1    15.53787    6.68100   -4.82803
       H    13.60977   10.44044   -5.41173
       O    13.87076    9.54885   -5.17970
      H1    13.07871    9.03726   -5.37617
       H    18.14259    8.40260   -7.88679
       O    18.47413    9.31994   -7.85916
      H1    19.42124    9.18933   -7.79725
       H    16.48380    7.77805  -11.16215
       O    16.10454    8.66378  -11.34042
      H1    15.94814    9.03139  -10.44062

