60
frame 0 | Written by MDAnalysis XYZWriter (release 2.4.3)
       H    13.46295  -16.64545   17.53507
       O    13.02633  -17.08902   18.27196
      H1    12.61097  -16.40480   18.82768
       H    17.44866  -14.24239   17.50745
       O    16.52381  -14.50107   17.59439
      H1    16.38134  -15.05173   16.82525
       H    12.59611  -18.55120   11.42768
       O    12.10167  -17.74189   11.41119
      H1    12.73776  -17.02963   11.66426
       H    18.43804  -13.67571    8.06056
       O    19.05356  -13.99677    7.38253
      H1    19.17705  -13.18730    6.86182
       H    17.27415  -17.32670    8.47730
       O    16.53568  -16.74132    8.24357
      H1    16.88190  -15.89997    8.54741
       H    18.70644  -18.97369    8.97265
       O    18.52990  -18.65075    8.07438
      H1    19.24338  -18.03570    7.93570
       H    18.67520  -11.82925   14.33573
       O    18.21070  -11.38151   15.02547
      H1    18.53038  -11.87364   15.80164
       H    15.90978  -17.93726   12.88612
       O    15.64017  -17.54651   12.02084
      H1    14.91638  -16.97356   12.23946
       H    13.25076  -10.03885   11.62033
       O    14.18613  -10.32701   11.68481
      H1    14.19616  -11.04399   12.30888
       H    13.59547  -18.54712   15.23324
       O    12.90222  -18.26586   14.61775
      H1    13.30467  -18.46904   13.77554
       H    14.89835  -15.53213   14.81536
       O    15.76002  -15.09456   14.97216
      H1    15.64548  -14.17295   14.66985
       H    15.09641  -12.68705   13.29036
       O    15.90738  -12.95198   12.86872
      H1    16.25568  -12.07071   12.60294
       H    17.84768  -10.26635   12.35225
       O    17.01661  -10.44338   12.81453
      H1    17.35294  -10.85349   13.65091
       H    17.94288  -13.66737    9.89614
       O    17.27757  -14.26843    9.49982
      H1    16.50141  -13.69421    9.39378
       H    18.11497  -16.17235   13.03484
       O    18.11044  -15.75559   13.89556
      H1    17.18959  -15.44600   13.99927
       H    12.24920  -15.48291   15.85577
       O    13.10975  -15.80058   15.59371
      H1    12.95770  -16.68665   15.21792
       H    17.02422  -16.88141   11.33024
       O    17.88756  -16.43684   11.19064
      H1    17.62457  -15.69556   10.71441
       H    17.37964  -17.48548   14.20989
       O    17.04858  -18.33113   14.54283
      H1    16.43174  -18.05087   15.22456
       H    13.50724  -11.96638   14.55633
       O    13.58744  -12.26316   13.64722
      H1    12.73394  -12.60884   13.39035
       H    13.27278  -15.29997   13.04588
       O    13.54269  -15.68430   12.20782
      H1    13.66940  -14.90747   11.60120

