60
frame 0 | Written by MDAnalysis XYZWriter (release 2.4.3)
       H   -15.78736  -15.39499    9.69555
       O   -15.20879  -14.73588    9.31117
      H1   -15.73449  -13.93383    9.37427
       H   -14.82407  -13.72535    2.27408
       O   -15.70098  -13.28707    2.11587
      H1   -15.50325  -12.82347    1.27662
       H   -15.16756  -16.27578    4.29248
       O   -14.27127  -16.61518    4.19796
      H1   -13.74406  -15.87917    3.90208
       H   -16.90309  -16.79108    0.18503
       O   -16.73577  -16.10784    0.84512
      H1   -17.46525  -15.46338    0.78364
       H   -15.22670  -15.42332    5.82185
       O   -14.89074  -14.89030    6.56054
      H1   -15.48036  -14.97406    7.32464
       H   -11.72960  -16.94788    6.86468
       O   -12.24448  -17.54526    6.29993
      H1   -12.36700  -17.00888    5.51077
       H   -14.90586  -11.52932    6.54808
       O   -15.41440  -12.08220    5.94177
      H1   -15.19039  -12.96386    6.31520
       H    -9.14569  -17.86654    4.44278
       O    -8.59459  -17.11627    4.14172
      H1    -8.39124  -17.35845    3.20941
       H    -9.81915  -17.03779    8.12131
       O   -10.59610  -16.47914    8.19992
      H1   -10.30457  -15.72187    8.77101
       H   -12.52284  -14.75315    2.35439
       O   -13.46929  -14.90893    2.32080
      H1   -13.51854  -15.78311    1.91362
       H   -13.30112  -14.47428   12.81125
       O   -14.06598  -14.26463   12.21772
      H1   -13.93837  -14.92040   11.50467
       H   -14.33282  -18.00926   11.90538
       O   -14.36012  -17.84566   10.95700
      H1   -13.85597  -18.56662   10.59555
       H   -13.44774  -17.55075    2.59555
       O   -12.92586  -18.04445    1.94883
      H1   -12.43250  -18.64822    2.50768
       H   -12.86440  -14.50884    6.32135
       O   -12.07471  -14.13136    5.93445
      H1   -11.71220  -13.80876    6.79085
       H   -10.20414  -16.16283    3.83196
       O   -11.10534  -15.83177    3.63316
      H1   -11.28391  -15.25571    4.41730
       H   -12.10445  -15.94131    9.46066
       O   -12.06085  -15.13310   10.01441
      H1   -12.93222  -14.76073    9.90917
       H   -18.10043  -16.57854   11.22088
       O   -17.13102  -16.56762   11.17821
      H1   -16.90743  -17.21131   10.49705
       H   -17.92409  -15.51237    7.55564
       O   -17.69533  -16.44006    7.43646
      H1   -16.73671  -16.44474    7.52962
       H   -14.05359  -18.00984    7.10707
       O   -15.00745  -18.10715    7.04098
      H1   -15.07994  -18.37624    6.11969
       H   -17.42349  -16.45457    3.22747
       O   -17.27473  -16.54207    4.16199
      H1   -17.99714  -15.94360    4.47749

