60
frame 0 | Written by MDAnalysis XYZWriter (release 2.4.3)
       H    -7.40376   12.03137    8.74594
       O    -7.77897   11.47600    9.44033
      H1    -8.12953   10.74407    8.92634
       H    -7.03897    8.25036    9.76628
       O    -6.52175    7.42060    9.65668
      H1    -5.93075    7.65611    8.93467
       H    -7.26721    9.51946    3.12771
       O    -6.52274    9.38042    2.58810
      H1    -6.89138    8.93205    1.84569
       H   -10.04138   13.07502    4.36491
       O   -10.21779   13.93176    4.80196
      H1    -9.62054   13.87884    5.55487
       H    -8.77557    7.51065    2.96441
       O    -8.60467    7.13305    3.81736
      H1    -7.77715    6.68246    3.77678
       H    -6.73396   11.82913    5.69946
       O    -7.43475   11.52578    6.28087
      H1    -7.53595   10.63032    5.99520
       H    -4.60894   13.44678    4.44644
       O    -5.38675   12.87401    4.42201
      H1    -6.12031   13.45455    4.24936
       H    -6.82850    8.62859    5.90251
       O    -7.61598    8.98785    5.51026
      H1    -7.85443    8.26977    4.89737
       H    -9.55223    9.21565    7.56613
       O    -9.04701    9.05466    8.36168
      H1    -9.01612    8.08516    8.36224
       H   -11.03518    9.42106    5.90655
       O   -10.13604    9.81583    5.99997
      H1    -9.53383    9.16757    5.67591
       H    -8.16643    5.75583    7.40971
       O    -7.54043    5.69452    6.67618
      H1    -7.55379    6.59833    6.27748
       H   -10.14025   10.94119    3.17065
       O    -9.84570   11.54634    3.88363
      H1    -9.66474   10.95780    4.63807
       H    -9.66349    9.44714    1.45524
       O    -9.67583    9.16697    2.36224
      H1   -10.54444    8.67404    2.41010
       H    -6.64957   12.95252    7.17340
       O    -6.21418   13.63801    7.68594
      H1    -6.92965   14.22492    7.91431
       H   -10.12880   13.80307    7.41950
       O    -9.27465   14.26906    7.29557
      H1    -9.30898   14.96807    7.93155
       H    -8.49423   13.06290    3.65249
       O    -7.85464   13.69210    3.32515
      H1    -7.94905   14.44488    3.93321
       H    -5.62213    7.69330    3.33119
       O    -5.25333    7.01348    3.87702
      H1    -4.31043    7.04445    3.65918
       H    -4.80720    7.77076    6.83728
       O    -5.53399    8.30055    7.17922
      H1    -5.04428    8.98710    7.62578
       H    -4.18043   11.03406    7.81754
       O    -4.37101   10.32247    8.45037
      H1    -3.50159   10.14299    8.74193
       H    -3.22252   11.40030    2.78010
       O    -4.02125   11.56202    2.23932
      H1    -4.70652   11.36995    2.86908

