60
frame 0 | Written by MDAnalysis XYZWriter (release 2.4.3)
       H    -9.82564   11.96970   -9.68655
       O    -9.11571   11.30245   -9.61045
      H1    -8.79702   11.12339  -10.52094
       H   -18.17202   12.08506   -7.87035
       O   -17.34605   11.91773   -8.43109
      H1   -17.20897   12.77586   -8.83005
       H   -13.04118    9.43038  -12.27799
       O   -12.85518    9.03725  -11.44792
      H1   -12.59897    9.83858  -10.92188
       H   -15.51241   10.83433   -6.92078
       O   -14.98886   11.61099   -6.84825
      H1   -15.45761   12.22604   -7.48214
       H   -12.23910   10.00506   -6.53968
       O   -12.03984    9.08710   -6.25432
      H1   -11.22896    9.23738   -5.77320
       H   -16.20991    8.12905   -7.40418
       O   -16.30747    8.72835   -6.65162
      H1   -17.15326    8.31238   -6.34205
       H   -10.42941   14.28519  -10.75320
       O   -11.06435   13.81937  -10.22904
      H1   -11.19872   14.57381   -9.59285
       H   -12.39995   14.94490   -7.41405
       O   -12.50735   15.54180   -8.24419
      H1   -13.12528   16.22937   -7.82356
       H   -15.46711   15.01592   -8.86035
       O   -15.72471   14.22254   -8.40283
      H1   -16.06827   14.57045   -7.56137
       H    -8.74283   13.90555   -6.48178
       O    -9.45029   13.96072   -7.20043
      H1    -9.36166   14.92221   -7.32087
       H   -10.73390    9.16679   -7.99302
       O    -9.88855    8.95764   -8.40953
      H1    -9.57923    9.77875   -8.79726
       H   -13.82672   11.84439   -9.28898
       O   -13.71941   12.29267  -10.13595
      H1   -12.78889   12.55405  -10.12912
       H   -14.94715   11.55278   -5.09899
       O   -14.80872   11.42470   -4.14291
      H1   -14.47894   10.50884   -4.05362
       H   -12.30443   13.76165   -5.39124
       O   -12.03951   13.80693   -6.31663
      H1   -11.02726   13.63814   -6.31573
       H   -16.01909   11.44359  -11.36224
       O   -15.69736   12.33978  -11.72804
      H1   -14.87698   12.44149  -11.23030
       H   -13.52844    8.80602   -5.33178
       O   -14.31383    8.83513   -4.79763
      H1   -15.03446    8.76059   -5.51341
       H   -12.32358   12.45027   -7.19936
       O   -12.52474   11.52480   -7.40030
      H1   -13.50611   11.53505   -7.10673
       H   -17.84113   11.31354   -3.60430
       O   -17.25094   11.85841   -3.02661
      H1   -16.37244   11.73213   -3.28752
       H   -15.96978    9.69190  -10.10406
       O   -15.22908    9.21408   -9.62939
      H1   -14.58857    9.12209  -10.34680
       H   -13.43717   14.22743   -4.01785
       O   -12.78123   13.51628   -3.81848
      H1   -13.44667   12.87845   -3.71858

