60
frame 0 | Written by MDAnalysis XYZWriter (release 2.4.3)
       H     4.35777   -7.84933   13.27427
       O     4.84494   -8.51051   12.74264
      H1     5.72175   -8.14598   12.69796
       H     4.25169   -6.14740   17.17854
       O     4.50066   -5.28743   16.84908
      H1     4.94100   -5.52722   16.02811
       H     2.47010   -8.30418   13.63955
       O     2.54900   -7.36300   13.87511
      H1     2.21497   -7.32458   14.79185
       H     3.23292  -10.18631   13.06162
       O     2.29060  -10.06349   12.93628
      H1     2.04810  -10.45168   12.09029
       H    -1.27662   -7.11082   17.39501
       O    -1.63569   -7.52536   16.62111
      H1    -1.52282   -8.44414   16.81078
       H     1.01257   -6.00700   16.80043
       O     0.75754   -5.85523   15.88572
      H1    -0.06151   -6.35452   15.82114
       H     1.61070  -10.20701   17.11452
       O     0.85439   -9.73264   16.75633
      H1     0.79484  -10.13996   15.87837
       H     2.98478   -7.43458   10.94194
       O     3.38797   -7.47785   10.07226
      H1     2.63625   -7.65044    9.47779
       H     1.11867   -4.54964   14.93269
       O     1.11024   -3.82821   14.29100
      H1     1.03969   -3.07706   14.86640
       H     0.70779   -5.67475   19.07878
       O     1.50113   -5.40855   18.57669
      H1     1.39209   -4.45946   18.46631
       H     0.57965   -5.86628   11.59956
       O     1.08752   -6.67951   11.56330
      H1     1.49151   -6.75220   12.42986
       H     4.62807   -5.96121   13.59736
       O     5.22450   -5.43650   14.15554
      H1     4.99315   -4.55110   13.89748
       H     3.32856   -8.58791   17.07621
       O     3.63999   -7.88254   16.48239
      H1     4.49259   -8.21529   16.22101
       H    -1.46569   -5.16290   13.83006
       O    -1.39578   -4.29048   13.45446
      H1    -0.56623   -3.94772   13.77951
       H     3.49540   -3.62352   17.02091
       O     3.36686   -2.68637   17.27330
      H1     2.61262   -2.40385   16.77588
       H     2.50995   -3.84434   13.21491
       O     3.14840   -3.45764   12.59768
      H1     3.12744   -4.08558   11.86549
       H     5.93309  -10.03693   16.36075
       O     6.13772   -9.23032   15.93773
      H1     6.35873   -9.51375   15.02873
       H    -0.85006   -9.42273   11.73808
       O    -0.05211   -9.60578   11.19418
      H1     0.40892   -8.72711   11.17461
       H    -2.93856   -7.56013   13.83325
       O    -2.95808   -6.74504   14.31233
      H1    -2.70824   -6.97314   15.25101
       H     0.81141  -10.14487   13.89813
       O    -0.01532  -10.56417   14.20031
      H1    -0.68540  -10.01660   13.79586

