60
frame 1 | Written by MDAnalysis XYZWriter (release 2.4.3)
       H    -4.85996  -12.62036  -10.61885
       O    -5.43295  -11.84471  -10.42642
      H1    -5.09999  -11.54881   -9.60755
       H    -8.59546  -11.80625  -16.66395
       O    -7.78217  -11.43026  -17.01315
      H1    -7.09311  -12.04220  -16.75139
       H    -5.53248   -7.74495  -14.96103
       O    -4.98112   -8.02072  -14.22411
      H1    -5.10436   -8.96333  -14.19926
       H    -2.04420  -10.86336  -13.88975
       O    -2.40404  -10.98524  -14.77468
      H1    -1.81653  -11.66392  -15.13969
       H    -0.37331  -14.92676  -13.94786
       O    -1.03049  -14.25454  -13.66815
      H1    -0.80890  -14.07076  -12.73110
       H    -6.04689  -17.21846  -13.17307
       O    -5.91619  -16.64925  -12.40289
      H1    -5.17378  -17.04300  -11.95211
       H    -2.51316  -15.52160  -13.46770
       O    -3.46724  -15.62308  -13.66501
      H1    -3.64824  -16.51343  -13.47423
       H    -6.54667  -11.29160  -12.68868
       O    -7.24320  -11.68709  -13.23941
      H1    -7.21324  -12.63174  -13.06503
       H    -1.15584  -10.66540  -11.23953
       O    -1.59746  -10.27183  -12.02603
      H1    -2.48932  -10.60512  -11.97618
       H    -0.12264  -12.79950  -16.35806
       O    -0.99929  -13.03746  -16.05381
      H1    -0.86671  -13.38471  -15.19664
       H    -4.51080   -9.96474  -16.82023
       O    -5.36425   -9.86361  -16.42122
      H1    -6.00016   -9.91524  -17.13811
       H    -0.49177  -14.27891  -10.45806
       O    -0.78101  -13.46216  -10.82317
      H1    -1.71127  -13.46586  -10.81139
       H    -3.83848  -13.65873  -13.81154
       O    -4.49970  -12.96965  -13.82937
      H1    -4.08217  -12.13688  -14.13379
       H    -8.18583  -14.72001  -13.83047
       O    -7.82024  -14.70278  -12.95708
      H1    -7.27226  -15.50117  -12.93074
       H    -4.90692  -16.25861  -15.39511
       O    -5.06644  -16.43869  -16.33130
      H1    -5.08195  -15.56891  -16.69824
       H    -3.73403  -14.50495  -11.20142
       O    -3.55413  -13.56440  -11.21738
      H1    -3.81483  -13.38013  -12.13041
       H    -2.92672  -13.07401  -18.46043
       O    -2.42071  -12.27695  -18.45764
      H1    -1.92739  -12.38937  -17.60902
       H    -5.19784  -13.41192  -17.05338
       O    -5.82843  -13.55774  -16.35939
      H1    -5.40060  -13.25305  -15.56255
       H    -4.50794  -10.86730  -11.40822
       O    -4.34938  -10.15789  -12.08203
      H1    -4.14306   -9.42636  -11.45143
       H    -8.85664  -11.54988  -14.54469
       O    -9.63829  -11.70950  -15.07490
      H1    -9.78440  -12.65636  -14.90649

