60
frame 1 | Written by MDAnalysis XYZWriter (release 2.4.3)
       H     3.55879  -13.15561    1.52762
       O     3.99047  -12.68532    0.79943
      H1     4.70909  -12.22953    1.24535
       H     6.27147  -15.52742    4.16797
       O     6.70257  -16.20148    4.67040
      H1     7.56274  -15.80771    4.99132
       H     7.31841  -15.16207   -0.74279
       O     7.24341  -15.96440   -1.24843
      H1     8.08069  -16.09468   -1.71596
       H     0.97549  -14.67770   -0.48151
       O     0.43434  -14.17076    0.11852
      H1     0.39466  -13.31475   -0.30362
       H     5.90933  -18.23426   -0.20703
       O     5.55431  -18.87644   -0.82925
      H1     6.33129  -19.15082   -1.31549
       H     4.32988  -14.45129   -4.04435
       O     3.68382  -15.16054   -3.92327
      H1     3.36087  -15.04700   -3.01841
       H     4.01826  -16.58631    4.79493
       O     3.96562  -16.47524    3.81663
      H1     4.66057  -17.10205    3.54117
       H     4.81853  -14.14138    3.53697
       O     4.96619  -13.40755    4.15646
      H1     4.24539  -13.47124    4.80800
       H     6.11595  -13.66282    0.74686
       O     6.31966  -14.46613    1.18380
      H1     5.68322  -15.06874    0.79201
       H     4.60950  -16.73800   -3.45753
       O     4.87528  -17.62773   -3.61311
      H1     5.18136  -17.90267   -2.72063
       H     0.03145  -17.09655    3.65940
       O     0.86168  -17.59114    3.64049
      H1     0.50581  -18.44244    3.90135
       H     2.51045  -14.78633    2.62777
       O     2.18220  -13.88151    2.63747
      H1     1.49740  -13.90165    1.96955
       H     4.14728  -12.39706   -1.07355
       O     4.11195  -12.54195   -2.03297
      H1     3.80085  -11.73522   -2.44112
       H    -0.78622  -15.76147   -0.08393
       O    -0.86904  -16.67977   -0.33783
      H1    -0.03770  -16.87330   -0.81141
       H     3.11156  -16.67082    2.41328
       O     2.64051  -16.55434    1.58539
      H1     1.78947  -16.92076    1.81268
       H     4.34808  -16.89985    0.41384
       O     4.71922  -16.15591   -0.03091
      H1     5.16213  -16.57714   -0.74922
       H     8.94631  -16.17593    1.21269
       O     8.44511  -15.78136    1.92772
      H1     7.65107  -15.47115    1.45525
       H     2.62120  -14.26474   -1.11240
       O     2.60477  -15.20086   -1.48143
      H1     3.14059  -15.67169   -0.82738
       H     6.03678  -19.11769    2.79211
       O     5.22969  -18.60784    2.53703
      H1     4.49666  -18.99284    3.02553
       H     1.98315  -18.05954   -2.82874
       O     1.40910  -18.21101   -2.07230
      H1     1.75470  -19.01335   -1.66177

