60
frame 0 | Written by MDAnalysis XYZWriter (release 2.4.3)
       H    16.42346  -16.25007  -13.09319
       O    16.69241  -15.36752  -13.37379
      H1    17.56140  -15.50449  -13.75995
       H    12.64257  -13.68153  -11.11742
       O    13.30798  -13.85295  -10.41938
      H1    14.11580  -13.60196  -10.89886
       H    12.81775  -18.22944  -16.21663
       O    12.52325  -17.48438  -16.76314
      H1    12.79829  -16.66618  -16.30635
       H     9.08006  -14.93727  -17.55989
       O     9.68681  -15.69185  -17.44174
      H1     9.54124  -16.24802  -18.19567
       H    15.79909  -13.54513  -18.74490
       O    15.64848  -13.35802  -17.81184
      H1    15.15051  -14.15089  -17.54626
       H    10.60913  -18.72595  -10.91883
       O    10.29333  -17.87665  -11.30329
      H1    10.75847  -17.88216  -12.16513
       H    12.17583  -14.02149  -18.54021
       O    11.95863  -14.94662  -18.46239
      H1    11.17979  -14.91109  -17.97089
       H     8.25766  -17.18096  -16.20121
       O     7.28919  -17.15784  -16.25038
      H1     7.01400  -17.69772  -15.50453
       H    14.08084  -16.31868  -17.35883
       O    14.70747  -15.82789  -16.80877
      H1    15.56250  -16.21974  -17.01457
       H    14.59040  -13.53016  -14.61849
       O    14.45824  -14.09045  -13.85957
      H1    15.31551  -14.52881  -13.76903
       H     8.63930  -17.61520  -11.78214
       O     7.83760  -17.51123  -12.32967
      H1     8.11045  -16.89905  -13.01115
       H     9.57163  -16.73795  -14.70251
       O     9.67141  -16.28681  -13.87807
      H1    10.59928  -15.97019  -13.87551
       H    16.52262  -18.60451  -14.91825
       O    15.78633  -19.15148  -14.63423
      H1    15.58164  -18.86292  -13.73633
       H    13.91936  -16.53613  -12.26581
       O    14.41329  -17.26341  -12.72418
      H1    14.10211  -18.01689  -12.21538
       H    12.34092  -16.56123  -14.48657
       O    12.22439  -15.68946  -14.89350
      H1    12.94079  -15.16804  -14.55131
       H    13.59568  -15.50623   -9.85968
       O    13.51992  -16.46572   -9.93518
      H1    14.42065  -16.71937   -9.69068
       H    12.17577  -18.87116  -14.13307
       O    11.63559  -18.14777  -13.75513
      H1    10.76851  -18.32980  -14.15389
       H     9.58206  -18.70877  -16.83980
       O     9.84611  -18.18251  -16.10826
      H1    10.74635  -17.90246  -16.37020
       H    11.02164  -14.10859  -16.10162
       O    10.59135  -13.28857  -16.29039
      H1    11.27593  -12.63252  -16.19858
       H     8.94298  -14.77812  -13.05974
       O     8.85442  -13.99714  -12.54432
      H1     8.94833  -13.28763  -13.17619

