60
frame 0 | Written by MDAnalysis XYZWriter (release 2.4.3)
       H    10.89856   -5.39502   12.89945
       O    10.72785   -4.96364   13.73938
      H1    11.56591   -4.92898   14.16785
       H     4.25169   -6.14740   17.17854
       O     4.50066   -5.28743   16.84908
      H1     4.94100   -5.52722   16.02811
       H     9.18670   -7.46249   15.72064
       O     9.66686   -7.69925   14.91478
      H1    10.32523   -7.04185   14.81313
       H     7.77223   -2.15752   13.85457
       O     7.00128   -2.65340   14.09936
      H1     7.32690   -3.20569   14.81718
       H     4.85386   -2.20374   16.44661
       O     5.68658   -1.73338   16.49387
      H1     5.85647   -1.59228   15.57850
       H     7.39764   -3.66380   12.73247
       O     7.87806   -4.24472   12.14947
      H1     8.59319   -3.65668   11.84018
       H    10.63625   -6.52861   10.34050
       O    10.62787   -6.76078   11.30967
      H1     9.74057   -7.12854   11.47682
       H    11.13820   -0.71275   16.87270
       O    11.73976   -0.73404   17.62085
      H1    12.15799    0.11409   17.65477
       H     6.95024   -6.30640   13.30061
       O     7.13171   -7.27232   13.17259
      H1     7.14714   -7.41218   12.21919
       H     4.57932   -2.01694   12.42118
       O     5.34688   -1.59756   11.99119
      H1     5.74317   -1.05461   12.67649
       H     8.22408   -6.78894   17.72863
       O     7.94371   -6.84671   16.81294
      H1     7.60381   -7.75802   16.76925
       H     4.62807   -5.96121   13.59736
       O     5.22450   -5.43650   14.15554
      H1     4.99315   -4.55110   13.89748
       H     9.35864   -1.73866   16.81013
       O     9.58679   -1.06005   16.17293
      H1     9.75456   -1.58680   15.35543
       H    11.92891   -3.38685   17.67725
       O    12.58909   -4.00708   17.30797
      H1    13.42139   -3.54501   17.49929
       H     7.25331   -3.56367   10.67321
       O     6.72100   -3.17066    9.97172
      H1     6.20848   -2.46523   10.41527
       H     6.38339   -2.98370   17.65126
       O     6.61558   -3.91125   17.81410
      H1     5.97037   -4.36681   17.26934
       H     8.08461   -5.32848   15.86829
       O     8.25833   -4.57251   15.30604
      H1     8.76376   -4.99300   14.59826
       H     9.94913   -3.33524   13.90030
       O     9.96967   -2.35914   13.89911
      H1    10.79710   -2.08574   13.50364
       H     8.64592   -3.72803   18.00444
       O     9.50150   -3.37601   17.71470
      H1     9.64925   -3.82355   16.85443
       H     6.84331    0.57967   15.79533
       O     7.59941    0.83641   16.35619
      H1     8.20734    0.10475   16.17597

