60
frame 1 | Written by MDAnalysis XYZWriter (release 2.4.3)
       H    12.76531    2.65091  -17.52623
       O    13.61649    3.16600  -17.60052
      H1    14.30255    2.50472  -17.65622
       H    12.99090   -1.07084  -18.03341
       O    13.79884   -0.80248  -17.57778
      H1    14.44344   -1.52547  -17.75761
       H     6.87055   -0.48008  -18.44625
       O     6.11380   -0.11058  -18.92965
      H1     5.51410    0.21013  -18.21821
       H    10.33014   -1.45568  -18.66835
       O    11.10412   -1.48515  -18.03007
      H1    11.33593   -2.45638  -18.16588
       H     8.46184   -1.07564  -16.13058
       O     8.14455   -0.30874  -16.65012
      H1     8.02966    0.31553  -15.94654
       H     9.67460    6.21254  -18.49382
       O    10.37617    6.06522  -17.75489
      H1    11.18400    5.97845  -18.23507
       H     5.84701    0.88665  -13.01120
       O     5.49507    0.11290  -13.50899
      H1     6.23653   -0.31291  -13.92158
       H     8.27463    4.61047  -14.98645
       O     9.10232    4.57256  -14.51877
      H1     9.41401    3.69928  -14.65161
       H    13.38218   -1.10284  -14.28453
       O    12.78610   -1.41024  -14.95435
      H1    13.30125   -1.24349  -15.77039
       H     9.63974   -1.84059  -14.41854
       O    10.29999   -2.33243  -14.86728
      H1    11.02077   -1.71380  -14.99509
       H     9.01815    0.92115  -18.07254
       O     9.37807    1.48690  -18.77968
      H1     8.97767    2.32181  -18.65821
       H     4.99246   -1.58294  -16.25896
       O     5.48309   -2.40810  -16.26875
      H1     6.33241   -2.08401  -16.62251
       H     7.28983    5.13108  -17.37617
       O     7.31033    4.29456  -16.88972
      H1     6.42369    4.30558  -16.53068
       H     8.16036   -1.12883  -12.86553
       O     8.50495   -0.71255  -13.65171
      H1     9.17374   -0.11485  -13.33586
       H    10.40246    2.12915  -17.27529
       O    10.99883    2.61432  -16.70703
      H1    10.74688    3.49809  -16.67817
       H     9.75244    1.84923  -12.24871
       O    10.19237    1.08123  -12.60875
      H1    10.86453    1.33475  -13.26476
       H     9.10863   -3.10907  -16.16236
       O     8.19678   -3.01480  -16.52193
      H1     7.76414   -3.56992  -15.80932
       H     6.84508    3.37214  -18.17559
       O     6.53954    2.95553  -18.98128
      H1     5.64612    3.27710  -19.09967
       H    12.25302    0.44965  -14.81192
       O    12.07601    1.37063  -14.58687
      H1    11.80249    1.80813  -15.38000
       H     7.93168   -3.39413  -18.40091
       O     7.88514   -3.93360  -19.19531
      H1     7.36954   -3.37595  -19.78889

