60
frame 1 | Written by MDAnalysis XYZWriter (release 2.4.3)
       H   -12.30255  -11.41097   15.24489
       O   -11.61200  -10.74445   15.47233
      H1   -10.96612  -11.30575   15.91807
       H   -10.46709  -11.01320   12.33803
       O   -10.91723  -11.85015   12.53989
      H1   -11.82399  -11.57213   12.75804
       H   -12.99789   -7.41582   12.35268
       O   -12.53919   -8.11493   11.83190
      H1   -11.68479   -8.06581   12.26720
       H    -7.37798   -6.64463   13.47275
       O    -7.99342   -6.74067   14.21284
      H1    -8.86348   -6.87694   13.79373
       H    -5.96538   -9.03251    9.36943
       O    -5.07253   -9.10324    9.77116
      H1    -4.69322   -8.23089    9.60659
       H    -5.51843   -7.27171   12.73113
       O    -6.07245   -6.51916   12.46996
      H1    -6.24026   -6.73228   11.55036
       H    -7.16807  -11.00522   12.19009
       O    -6.49904  -11.39177   11.57617
      H1    -6.46936  -12.32412   11.73717
       H   -10.92144  -10.35500    9.83336
       O   -11.75661  -10.55819   10.26301
      H1   -11.47706  -11.14961   10.96333
       H    -9.09299   -9.60662    7.95555
       O    -9.16302   -9.96682    8.86313
      H1    -8.58680  -10.74535    8.88554
       H   -11.60012   -8.77090   15.38018
       O   -11.96665   -7.93063   15.06349
      H1   -11.51414   -7.22628   15.57131
       H    -5.33022   -7.44999   15.91749
       O    -5.90328   -7.38205   16.69554
      H1    -6.81179   -7.37432   16.32359
       H    -8.77852  -12.19044   17.07102
       O    -8.73534  -11.77031   16.21737
      H1    -8.59138  -10.82754   16.39165
       H    -8.37458   -7.49931    9.78274
       O    -8.58265   -7.31522   10.69358
      H1    -8.55833   -6.34211   10.79389
       H   -11.57049   -7.18669   10.27479
       O   -11.03171   -6.53966    9.78786
      H1   -10.18868   -6.85979   10.08233
       H   -10.86579   -7.18408   13.65056
       O   -10.35505   -6.72168   12.96409
      H1   -10.84014   -5.91345   12.81120
       H    -7.34443  -12.24517    9.79887
       O    -7.55381  -12.08214    8.88268
      H1    -7.91453  -12.91520    8.58835
       H    -5.97664  -12.87583   14.93266
       O    -6.87628  -13.00823   14.65195
      H1    -7.42523  -12.46746   15.25411
       H    -6.68016   -9.49023   15.26953
       O    -7.18781   -9.23104   14.50055
      H1    -7.48574   -8.35474   14.72678
       H    -8.41666   -9.34279   13.03845
       O    -8.80518   -9.69679   12.22970
      H1    -8.59501   -9.00866   11.60778
       H    -5.33701   -9.09366   11.75854
       O    -5.01556   -9.01198   12.68794
      H1    -5.79633   -9.16693   13.20586

