60
frame 2 | Written by MDAnalysis XYZWriter (release 2.4.3)
       H    -0.42002    5.59976  -13.82831
       O    -0.76660    4.75820  -14.14902
      H1    -1.09856    4.22568  -13.42415
       H    -6.01058    6.59688  -17.57363
       O    -6.09256    7.52982  -17.68061
      H1    -5.69678    7.93274  -16.90823
       H    -6.33248    4.93629  -15.24465
       O    -5.81142    5.62775  -14.84931
      H1    -4.86120    5.45334  -15.00767
       H    -0.86238    6.97323  -17.45711
       O    -0.98522    7.08774  -16.51689
      H1    -1.42373    7.93021  -16.31383
       H     0.63340    9.16511  -18.76140
       O     0.10435    9.71472  -19.33702
      H1     0.60468    9.89925  -20.12619
       H     0.39436   10.67190  -15.73715
       O    -0.42766   10.39531  -15.24640
      H1    -1.12604   10.37734  -15.88562
       H    -3.02770   12.61469  -19.39075
       O    -2.24097   12.04169  -19.42625
      H1    -2.54333   11.16313  -19.43365
       H    -4.57741    8.54768  -14.75053
       O    -4.96742    9.09946  -15.44784
      H1    -5.86443    8.73725  -15.49213
       H     4.12013    7.85609  -17.51511
       O     3.86224    6.87765  -17.41271
      H1     2.88537    6.91880  -17.43195
       H    -3.79554    5.22904  -19.33112
       O    -3.49368    4.53068  -18.81181
      H1    -3.94413    3.71235  -19.14552
       H     0.32178    6.38446  -12.13480
       O     0.55004    6.87693  -12.86914
      H1     1.41053    6.50738  -13.16526
       H     0.67154    7.97086  -16.64084
       O     1.46857    8.18105  -17.14349
      H1     1.97462    8.77106  -16.59269
       H    -0.43581    2.62267  -15.96213
       O     0.30333    3.13426  -16.25714
      H1     0.24442    4.00223  -15.77001
       H    -2.40413    6.04110  -16.08294
       O    -2.97322    5.37577  -15.63802
      H1    -2.35398    4.93191  -15.00922
       H    -1.61393    9.04498  -19.28891
       O    -2.49487    9.31182  -18.92493
      H1    -3.04448    8.65935  -19.38522
       H    -2.20837    6.20775  -18.88675
       O    -1.31027    6.44414  -19.18880
      H1    -0.77731    5.60664  -19.06878
       H    -2.39386    7.86860  -13.29923
       O    -3.08593    7.36722  -13.69485
      H1    -2.78790    6.61229  -14.19784
       H    -0.98903    9.86340  -13.43877
       O    -1.46218    9.69015  -12.53073
      H1    -1.25567   10.49417  -12.08634
       H    -0.15284   12.30379  -17.57690
       O     0.67985   12.14133  -18.05264
      H1     0.36625   11.49936  -18.70534
       H    -2.37637    9.32579  -17.16196
       O    -2.56923    9.36627  -16.21223
      H1    -3.49012    9.52926  -16.11695

