60
frame 0 | Written by MDAnalysis XYZWriter (release 2.4.3)
       H     4.82159    9.12151    5.49498
       O     4.25352    8.68891    4.83197
      H1     3.85670    7.95207    5.32158
       H     6.73768    6.17502    4.21660
       O     7.66229    6.25299    3.88594
      H1     8.18061    6.20312    4.68471
       H     0.64000    4.14360    4.01709
       O     0.55195    4.99032    4.47554
      H1     0.72141    4.79800    5.41182
       H     4.89793   11.64695    3.67711
       O     4.63688   12.22228    4.41685
      H1     4.02577   12.86458    4.02629
       H     6.57973    8.81264    7.70590
       O     5.77284    9.13945    7.29327
      H1     5.16004    8.43482    7.52738
       H     0.90767    8.25745    8.67021
       O     0.51712    8.09375    9.53385
      H1     1.03910    8.65909   10.13079
       H    -1.31997    7.54466    6.35966
       O    -0.39107    7.50731    6.08905
      H1    -0.40143    8.06721    5.30346
       H     2.39152    7.34246    7.35106
       O     2.76853    8.18046    7.70293
      H1     3.49209    7.75622    8.21055
       H     5.44747    6.48077    7.73694
       O     5.02681    6.57989    8.61836
      H1     5.77241    6.67012    9.24139
       H     4.40187    5.16224    1.50178
       O     3.97622    6.02195    1.63709
      H1     4.69866    6.63231    1.43575
       H     3.46602    5.99745    3.62815
       O     3.39792    6.06662    4.58545
      H1     2.52690    5.69658    4.80342
       H     4.88300    5.05946    4.25185
       O     5.49186    4.41358    3.88827
      H1     6.35512    4.66990    4.22856
       H     2.17442    8.15250    2.54433
       O     2.37712    9.05986    2.77518
      H1     2.98029    8.98683    3.53960
       H     4.93745    9.78324    3.17574
       O     5.25814   10.41051    2.50407
      H1     4.65177   10.20617    1.74972
       H     0.98037    9.47621    3.57050
       O     0.23433    9.66120    4.17498
      H1     0.56852   10.25363    4.79984
       H     0.84537    6.32054    6.67357
       O     1.66206    5.82390    6.81760
      H1     1.50161    5.40457    7.67263
       H     0.10324    7.59901    2.10093
       O     0.78766    6.92636    2.23085
      H1     0.58752    6.47188    3.02071
       H     4.89749   11.93051    6.18229
       O     5.10312   11.89955    7.13774
      H1     5.50942   11.01996    7.27732
       H     2.63255   10.00777    7.66902
       O     2.65505   10.96555    7.57920
      H1     3.58014   11.16339    7.35754
       H     7.58472    5.11513    6.79308
       O     6.63934    5.00251    6.74344
      H1     6.37800    4.18277    7.10540

