60
frame 0 | Written by MDAnalysis XYZWriter (release 2.4.3)
       H    -1.97259   -9.15011  -14.87294
       O    -2.41716   -8.26797  -14.94609
      H1    -1.65548   -7.69353  -14.83381
       H    -1.57697   -6.23325  -17.73500
       O    -0.62967   -6.40636  -17.94307
      H1    -0.57163   -7.38635  -17.96237
       H     0.28946  -14.14489  -18.38807
       O    -0.37210  -13.43751  -18.38498
      H1     0.08496  -12.73683  -18.89768
       H    -5.39459   -7.63430  -14.38355
       O    -4.74543   -7.77219  -13.68892
      H1    -3.95341   -7.99941  -14.22622
       H    -0.92398  -11.36468  -13.80255
       O    -1.59341  -10.91249  -14.37783
      H1    -1.66836  -11.49153  -15.16414
       H     2.57476   -5.44608  -13.78998
       O     1.87949   -5.63644  -13.15458
      H1     1.13712   -5.99815  -13.67041
       H    -3.41600   -5.47034  -14.11872
       O    -3.67750   -4.58521  -14.29576
      H1    -4.22106   -4.69196  -15.07673
       H    -0.95962   -5.39452  -14.83404
       O    -0.77330   -6.23952  -14.43927
      H1    -1.20848   -6.18823  -13.58370
       H    -1.46823  -12.72909  -16.99522
       O    -2.14540  -12.60081  -16.30122
      H1    -2.24348  -13.44262  -15.82394
       H     3.32294   -3.06239  -16.92548
       O     2.45897   -3.21914  -17.31064
      H1     2.38488   -4.18810  -17.30714
       H    -0.70064   -3.16597  -15.51324
       O    -1.33573   -3.81856  -15.82148
      H1    -2.03313   -3.80184  -15.13053
       H     3.32540  -10.06046  -14.91677
       O     2.52247  -10.00348  -14.40746
      H1     2.65135  -10.68254  -13.73465
       H    -2.81239   -7.46616  -16.53892
       O    -3.18215   -6.87779  -17.19457
      H1    -3.45937   -7.46878  -17.90512
       H     4.06242   -7.62034  -16.64840
       O     3.74863   -7.44699  -17.52447
      H1     3.26268   -8.27462  -17.75944
       H     3.73537  -10.32788  -19.26240
       O     2.98027   -9.78499  -19.06410
      H1     2.59790  -10.32895  -18.33092
       H     0.28404   -9.10817  -19.38173
       O    -0.16726   -9.03870  -18.52884
      H1    -1.00049   -9.50946  -18.69534
       H    -1.65768   -3.36278  -17.63991
       O    -1.74487   -3.00836  -18.53600
      H1    -2.47523   -2.35524  -18.47116
       H     2.25670   -6.26956  -16.97570
       O     1.65456   -5.74392  -16.38829
      H1     0.81477   -5.84747  -16.85847
       H    -5.22353   -4.58794  -17.63920
       O    -5.17155   -4.87408  -16.72021
      H1    -4.67127   -5.70887  -16.74138
       H     1.50411  -10.87323  -16.26413
       O     1.41383  -10.83768  -17.21802
      H1     0.83111  -10.07706  -17.26639

