60
frame 0 | Written by MDAnalysis XYZWriter (release 2.4.3)
       H   -12.53815    2.46938    9.84560
       O   -11.91238    1.74602    9.94189
      H1   -12.46957    1.12074   10.45911
       H   -12.05470   -1.09033   15.62130
       O   -11.38484   -0.64223   16.14962
      H1   -10.76601   -1.35621   16.38055
       H   -15.29586    0.28805   17.64970
       O   -15.03486    0.20366   18.56877
      H1   -14.33823   -0.46822   18.48815
       H   -11.74235    3.25498   15.18274
       O   -12.31507    3.99292   14.92227
      H1   -12.94385    4.04332   15.65364
       H   -15.32003    4.04990   12.86862
       O   -15.04355    3.14489   12.55650
      H1   -14.35552    3.37856   11.93454
       H   -11.32598    2.39885   17.72931
       O   -12.21107    2.42329   17.35148
      H1   -12.48535    1.52439   17.20077
       H   -12.51912   -0.66723   12.17408
       O   -13.14087    0.02984   11.92181
      H1   -13.27570    0.56070   12.72856
       H    -7.52303   -1.22146   13.30835
       O    -8.40724   -0.94533   13.57929
      H1    -8.25749   -0.53563   14.42636
       H   -13.60160    2.11517   14.50088
       O   -13.29161    1.20052   14.43064
      H1   -12.33400    1.27020   14.52004
       H   -14.99287    4.40740   16.98420
       O   -14.03195    4.42349   17.05105
      H1   -13.88208    3.70303   17.66523
       H    -9.96436    5.26232   15.93169
       O   -10.05233    4.71314   16.72838
      H1   -10.48446    3.92460   16.37719
       H   -16.43182    2.01893   12.88849
       O   -16.93975    1.48712   13.54177
      H1   -17.42315    0.90758   12.98394
       H   -12.33400    5.46414   13.61755
       O   -12.15487    6.36011   13.33297
      H1   -11.20254    6.34958   13.20431
       H   -13.07524    4.91054   11.70507
       O   -12.72317    4.03886   11.49439
      H1   -12.00510    3.89069   12.12335
       H   -15.05670   -1.88953   15.05792
       O   -15.86362   -1.63482   14.63120
      H1   -15.56017   -1.26149   13.78764
       H    -9.59024    2.69543   12.51531
       O   -10.19118    3.15075   11.90291
      H1   -10.52815    2.40611   11.34683
       H    -7.52374    2.55320   13.40716
       O    -8.27068    1.94444   13.57240
      H1    -8.35178    1.42584   12.78028
       H   -14.77560   -0.78227   11.73608
       O   -15.63427   -1.12737   12.01931
      H1   -15.89534   -1.70860   11.27291
       H   -10.36535    1.25740   15.69290
       O   -10.41964    2.04669   15.16710
      H1    -9.56973    2.07184   14.71446
       H   -16.02313    0.89733   15.24236
       O   -16.03573    0.90351   16.17786
      H1   -16.97751    0.75198   16.37369

