60
frame 1 | Written by MDAnalysis XYZWriter (release 2.4.3)
       H    -6.96365    6.66656   -8.46610
       O    -7.52548    7.04962   -7.73680
      H1    -8.40263    6.69214   -7.75489
       H   -10.20189    5.83703   -7.84641
       O    -9.97899    5.98202   -8.77262
      H1    -9.80838    5.11163   -9.09105
       H    -5.52579    9.71118   -8.27543
       O    -6.29563   10.15363   -7.90566
      H1    -7.06853    9.89073   -8.41041
       H    -7.99630    8.31371   -8.88985
       O    -8.33470    8.99396   -9.50904
      H1    -9.25752    9.10196   -9.22247
       H    -3.16002    7.28964   -6.59639
       O    -3.01872    8.22897   -6.43434
      H1    -3.34338    8.57798   -7.29588
       H    -3.60619    5.94039  -11.32539
       O    -4.19141    5.23893  -11.62971
      H1    -4.82216    5.62601  -12.27434
       H    -6.36728    4.24056  -14.42823
       O    -6.13155    5.14492  -14.17036
      H1    -5.19463    5.24259  -14.35097
       H    -5.83701    2.09421   -7.35518
       O    -5.60678    1.13432   -7.12207
      H1    -5.27292    1.14051   -6.25084
       H    -7.77092    3.41910   -7.10137
       O    -6.87425    3.68737   -7.41979
      H1    -6.56385    4.24013   -6.68409
       H    -3.25325    8.71125   -9.47479
       O    -3.56532    9.30315   -8.81040
      H1    -3.05248   10.15551   -8.89996
       H    -7.48334    6.76983  -14.23739
       O    -8.23148    7.39025  -14.08467
      H1    -8.43038    7.29174  -13.14407
       H    -9.72064    3.38011  -10.79821
       O    -9.10086    3.40671  -10.03682
      H1    -9.36683    2.68756   -9.45107
       H    -4.47929    5.11103   -6.34174
       O    -3.63249    5.35788   -6.79225
      H1    -2.96166    4.81684   -6.31278
       H    -1.74939    6.60216  -10.28721
       O    -2.53420    7.06360  -10.60435
      H1    -2.17909    7.55882  -11.37642
       H    -3.00976    2.13856  -11.90020
       O    -2.55778    3.06748  -11.88101
      H1    -3.23881    3.74124  -11.62717
       H    -4.07487    1.14703   -9.88514
       O    -4.19020    2.06243   -9.62116
      H1    -5.07211    2.46269   -9.89540
       H    -5.39203    5.78647  -10.02136
       O    -6.24249    5.61566   -9.61074
      H1    -6.08507    4.92860   -8.93724
       H    -7.43760    6.52183  -10.76299
       O    -8.28591    6.82170  -11.21460
      H1    -8.58720    7.59124  -10.83156
       H    -2.26186    4.50582   -8.36051
       O    -1.99502    3.93138   -9.09118
      H1    -2.86347    3.56162   -9.36428
       H    -7.34396    3.21406  -10.49656
       O    -6.58948    2.63506  -10.63124
      H1    -6.29919    2.81846  -11.51610

