60
frame 0 | Written by MDAnalysis XYZWriter (release 2.4.3)
       H    -1.32440    1.07012    3.24573
       O    -1.46197    1.62107    4.03286
      H1    -1.98647    1.03945    4.60917
       H    -1.54113    4.40021    4.84241
       O    -2.47418    4.66241    4.89251
      H1    -2.40252    5.60084    4.67361
       H    -7.74415   -2.26411    2.77926
       O    -8.17869   -2.52047    1.94476
      H1    -8.64194   -1.71773    1.73453
       H    -4.17370   -0.35603    5.06465
       O    -3.36940   -0.01659    5.46534
      H1    -3.70458    0.72673    5.98356
       H    -8.00512   -1.73911    4.57254
       O    -7.27282   -2.36182    4.50133
      H1    -7.63773   -3.09767    4.99191
       H    -4.38302    6.14736    0.02013
       O    -4.83078    5.52692   -0.56982
      H1    -5.07197    4.82711    0.03021
       H    -3.54772    3.00403    0.46008
       O    -3.90206    2.77875   -0.39831
      H1    -3.73835    1.84650   -0.49356
       H    -5.33533    1.64317    2.60103
       O    -5.69905    1.12982    1.88558
      H1    -5.87083    1.78889    1.21399
       H    -9.32550    0.12769    4.48050
       O    -9.41581   -0.64359    5.05052
      H1    -9.06928   -0.40180    5.92380
       H    -0.89416    1.98028   -1.44851
       O    -1.26053    2.86909   -1.31541
      H1    -2.05472    2.71518   -0.83167
       H    -3.89735    2.23354    7.62833
       O    -4.44974    2.09100    6.86695
      H1    -5.28944    1.85690    7.30487
       H    -7.25486    2.27030   -1.98292
       O    -7.36626    1.35167   -1.80361
      H1    -8.34953    1.30008   -1.77445
       H    -5.77652    2.62708    4.25091
       O    -5.47416    3.46958    3.93224
      H1    -4.69584    3.59606    4.49218
       H    -2.20387    2.72805    2.81861
       O    -2.86461    3.21617    2.28377
      H1    -3.01863    3.97837    2.88769
       H    -0.85334   -0.54807    1.88527
       O    -1.20110    0.30736    1.68410
      H1    -2.02037    0.16540    1.19381
       H   -10.00931    4.24096    1.53705
       O    -9.06824    4.15952    1.41732
      H1    -8.72604    4.55390    2.23146
       H    -9.09981    2.35083    2.80902
       O    -8.69969    1.49711    3.06281
      H1    -7.99201    1.36405    2.43118
       H    -3.84422   -0.41921   -0.47468
       O    -3.64001   -0.08767    0.43068
      H1    -4.49127    0.02565    0.89433
       H    -7.52132    1.46237    4.44263
       O    -6.76055    1.20933    4.96376
      H1    -7.10351    1.27031    5.87031
       H    -5.97744    5.73889    2.96187
       O    -6.70510    5.41646    2.38171
      H1    -6.50747    4.47595    2.25931

