60
frame 0 | Written by MDAnalysis XYZWriter (release 2.4.3)
       H    -3.52891   -1.46767  -16.38909
       O    -4.27819   -1.79462  -15.89119
      H1    -4.62712   -2.56503  -16.36080
       H     1.39898   -2.34702  -16.02329
       O     0.88290   -2.04692  -15.27375
      H1     0.94973   -2.70390  -14.55465
       H     3.66094   -0.80779  -16.40448
       O     3.64223   -0.61535  -15.47557
      H1     2.79678   -0.15157  -15.37184
       H     1.62808   -1.78009  -18.19507
       O     1.06923   -1.02268  -18.34965
      H1     0.53398   -0.94011  -17.54956
       H    -5.56332    2.21340  -15.53107
       O    -5.23911    2.29959  -16.43069
      H1    -4.33907    1.95575  -16.37919
       H    -5.35062   -0.58249  -17.76323
       O    -6.25197   -0.28255  -18.05141
      H1    -6.48099    0.30577  -17.35419
       H    -2.94843   -1.17733  -13.89734
       O    -2.18915   -0.59260  -13.94328
      H1    -1.74912   -0.68622  -13.08723
       H    -2.62663    2.01743  -18.07921
       O    -2.61966    1.87286  -17.12559
      H1    -2.36500    2.71630  -16.79729
       H     1.85088    2.24920  -17.24133
       O     1.16267    2.74211  -16.74319
      H1     1.61960    3.34410  -16.16453
       H     0.80648   -0.28254  -14.84288
       O     1.41288    0.40967  -14.58878
      H1     0.99054    1.14719  -15.02181
       H    -3.41600   -5.47034  -14.11872
       O    -3.67750   -4.58521  -14.29576
      H1    -4.22106   -4.69196  -15.07673
       H    -5.02775    0.13045  -13.93687
       O    -4.63772    0.66932  -13.26454
      H1    -3.78588    0.24220  -13.08630
       H     2.81776   -0.05263  -11.86408
       O     1.91875    0.28289  -11.93341
      H1     1.92274    0.66013  -12.80289
       H    -0.70064   -3.16597  -15.51324
       O    -1.33573   -3.81856  -15.82148
      H1    -2.03313   -3.80184  -15.13053
       H     0.16432   -0.55657  -11.55579
       O    -0.76432   -0.61340  -11.78341
      H1    -1.19709    0.15643  -11.39844
       H    -1.66854    1.18292  -14.21497
       O    -1.43089    2.09245  -14.36566
      H1    -0.81439    2.25497  -13.63562
       H    -0.39498   -3.39158  -12.11520
       O     0.44978   -3.28459  -12.57100
      H1     0.75742   -4.18525  -12.80467
       H    -1.55648   -0.74751  -15.65494
       O    -1.32650   -0.55294  -16.57286
      H1    -1.75638    0.32003  -16.69191
       H    -4.06965    2.89819  -12.74957
       O    -3.18517    3.29213  -12.70522
      H1    -2.68133    2.85427  -13.40068
       H    -1.65768   -3.36278  -17.63991
       O    -1.74487   -3.00836  -18.53600
      H1    -2.47523   -2.35524  -18.47116

