60
frame 0 | Written by MDAnalysis XYZWriter (release 2.4.3)
       H    17.75022   17.79561  -10.98478
       O    17.49493   17.25320  -11.74320
      H1    17.74554   16.37366  -11.43671
       H    15.46663   13.28042  -13.90779
       O    15.15545   13.37581  -12.99758
      H1    15.13253   14.33347  -12.82816
       H    17.24132   16.51681   -8.53949
       O    18.19277   16.62950   -8.65084
      H1    18.62654   15.80291   -8.48274
       H     8.35040   17.94056   -7.45705
       O     8.75867   17.12749   -7.17925
      H1     8.39683   16.84415   -6.33091
       H    10.57220   14.70757   -9.87557
       O     9.68304   14.75428  -10.28795
      H1     9.16692   14.44588   -9.56746
       H    11.28352   14.78591   -6.17988
       O    11.47872   15.71370   -6.24823
      H1    10.81197   16.02671   -6.86047
       H    13.93370   17.72780   -8.56597
       O    14.02852   18.65845   -8.64789
      H1    13.21434   18.98143   -8.24240
       H    16.09119   12.29748   -8.71913
       O    15.48681   12.90079   -9.20895
      H1    15.58144   13.74909   -8.80578
       H    12.94371   18.18011  -11.56880
       O    13.85727   18.36042  -11.31531
      H1    13.89170   18.26897  -10.34612
       H    18.54997   18.48233   -7.79717
       O    19.19146   18.81039   -7.14771
      H1    18.68620   19.52744   -6.70975
       H    14.12061   15.41740   -9.48866
       O    15.03529   15.68893   -9.32279
      H1    15.32484   15.93705  -10.21807
       H    16.08867   13.52889   -5.94129
       O    16.19514   14.31912   -6.49540
      H1    16.96960   14.11278   -7.04159
       H    13.85671   16.50130   -4.43937
       O    12.97159   16.66113   -4.10931
      H1    12.39943   16.32779   -4.82652
       H    12.47560   15.83765  -13.06517
       O    12.19473   16.63692  -12.64100
      H1    11.24328   16.74162  -12.84863
       H    15.63116   15.48152   -5.39703
       O    15.48488   16.16038   -4.72558
      H1    16.09396   15.85940   -4.02624
       H    12.17079   18.22469   -4.23640
       O    11.35674   18.76110   -4.32364
      H1    10.66503   18.10771   -4.43380
       H    12.77375   13.82556  -10.40979
       O    12.46538   14.68305  -10.11630
      H1    12.47236   15.11530  -10.95662
       H    11.31727   18.15781   -9.34273
       O    10.81597   17.60853   -9.93578
      H1    10.69964   16.82061   -9.42290
       H    15.65607   17.89683   -6.52321
       O    15.70549   18.83610   -6.61619
      H1    15.18043   19.05283   -7.38990
       H    14.38527   16.95790  -12.19464
       O    14.92706   16.14268  -12.33104
      H1    15.82052   16.47566  -12.36612

