60
frame 0 | Written by MDAnalysis XYZWriter (release 2.4.3)
       H    -6.23201  -12.81145  -11.52311
       O    -6.91169  -12.10823  -11.41058
      H1    -6.82073  -11.78075  -10.51355
       H    -6.56497  -15.66089   -9.50926
       O    -6.54670  -16.59856   -9.75535
      H1    -6.97692  -16.56781  -10.62069
       H   -10.19832  -15.29140  -11.26140
       O   -10.03885  -14.91688  -12.12992
      H1    -9.10625  -15.07991  -12.32812
       H    -7.30386   -8.38132   -9.74582
       O    -7.81330   -8.42653   -8.92086
      H1    -8.67306   -8.80226   -9.16386
       H    -5.93675  -13.80389   -7.61771
       O    -6.55355  -14.41886   -8.05960
      H1    -7.00318  -13.77407   -8.57211
       H    -6.95556  -10.77968  -12.41245
       O    -6.81615  -10.05825  -13.08458
      H1    -5.84315   -9.98360  -13.15789
       H    -9.73556  -10.59563  -10.25573
       O    -9.98346   -9.67169  -10.14329
      H1    -9.91125   -9.32200  -11.03680
       H    -6.39583  -11.31584  -16.02925
       O    -6.29429  -10.40765  -15.65741
      H1    -6.80573  -10.44515  -14.86798
       H    -8.08921  -10.42900   -6.39841
       O    -8.93402  -10.65114   -6.82667
      H1    -8.73434  -11.44582   -7.33718
       H    -9.89754  -13.27623  -11.41780
       O    -9.62449  -12.59026  -10.78216
      H1    -8.73810  -12.42535  -11.10886
       H    -3.23720  -11.46638  -14.14064
       O    -4.14897  -11.78941  -14.16491
      H1    -4.58060  -11.23949  -14.86378
       H    -7.42948  -17.52234  -12.50183
       O    -7.57064  -16.57220  -12.28265
      H1    -7.72103  -16.12422  -13.10903
       H    -5.96594   -7.56340  -11.20257
       O    -6.83596   -7.88677  -11.42298
      H1    -6.72639   -8.51646  -12.15639
       H    -8.35091  -13.80140  -13.76707
       O    -7.80554  -14.58501  -13.80336
      H1    -7.52790  -14.56848  -14.73561
       H    -5.56871  -10.54882   -9.17611
       O    -6.51325  -10.76991   -9.09420
      H1    -6.94718   -9.91724   -8.97406
       H    -4.63589  -14.74715  -12.04027
       O    -4.53233  -13.80665  -11.83841
      H1    -4.36344  -13.33432  -12.70438
       H    -9.38151  -12.99724   -9.17098
       O    -8.92853  -13.05623   -8.28655
      H1    -9.58752  -13.45634   -7.72986
       H    -3.59303  -11.15355  -12.54476
       O    -3.06040  -10.92626  -11.77213
      H1    -2.54247  -11.70368  -11.52100
       H    -3.56365  -10.34777  -10.19060
       O    -3.84305  -10.26636   -9.25155
      H1    -3.54743   -9.35018   -9.09708
       H    -9.29132  -11.41591  -13.29912
       O    -9.37016  -11.87219  -14.13238
      H1   -10.31753  -11.78922  -14.35936

