60
frame 0 | Written by MDAnalysis XYZWriter (release 2.4.3)
       H     1.93843  -10.87414    3.67040
       O     1.14914  -10.35057    3.45357
      H1     0.81874  -10.71396    2.62146
       H     2.86829  -12.31558    0.97509
       O     3.29784  -11.48462    0.72362
      H1     4.24665  -11.60078    0.73868
       H    -1.76820  -15.72019    0.69500
       O    -0.88012  -15.98042    0.93992
      H1    -0.60405  -16.53861    0.19893
       H    -0.50015  -14.26393    0.95948
       O    -0.39221  -13.30292    1.03962
      H1    -0.63233  -12.96810    0.14416
       H     3.97226  -13.37243   -4.46533
       O     3.26437  -14.05523   -4.38689
      H1     3.19365  -14.24885   -3.43354
       H     1.68362  -16.60275    3.49842
       O     2.62479  -16.57899    3.65217
      H1     2.86990  -17.49845    3.89564
       H     4.50328  -14.30125    2.03377
       O     4.71339  -14.77898    2.84777
      H1     3.83914  -15.04718    3.15575
       H     5.95059  -12.62440    0.27455
       O     5.83080  -13.55612    0.40043
      H1     5.34857  -13.84534   -0.40101
       H    -0.28624  -16.69120    2.40968
       O    -0.13231  -16.95510    3.31250
      H1    -0.91023  -16.58791    3.76243
       H     2.70407  -15.14912    0.78033
       O     2.34957  -14.26880    0.88062
      H1     1.40827  -14.33342    0.69318
       H     3.46842  -12.30025   -2.28479
       O     4.15436  -11.76698   -2.69709
      H1     4.00217  -10.89594   -2.27373
       H     0.32263  -16.34504   -1.71084
       O    -0.35121  -17.02042   -1.53724
      H1     0.15874  -17.82843   -1.54254
       H     4.14085  -16.74327    1.11666
       O     3.71209  -16.62995    0.22293
      H1     3.30684  -17.50320    0.12579
       H    -0.17570   -9.65568    0.15497
       O     0.10495  -10.18288    0.93150
      H1     0.44216  -11.01186    0.57603
       H     4.40972  -15.22213   -1.21526
       O     4.46105  -14.42423   -1.74879
      H1     4.92791  -14.70900   -2.56375
       H     7.93939  -15.09011    1.07210
       O     7.39925  -15.16113    1.86699
      H1     6.53640  -14.80782    1.56052
       H     4.00667  -12.52591    3.67203
       O     3.50753  -12.04025    4.30648
      H1     3.17894  -12.72993    4.89007
       H     1.04399  -11.96292   -1.62613
       O     1.92633  -12.41424   -1.54434
      H1     2.34908  -11.90285   -0.84569
       H     2.56665  -15.30992   -2.11541
       O     1.61084  -15.10747   -2.05161
      H1     1.62283  -14.21792   -1.67587
       H     0.42041  -13.42730    2.77511
       O     0.51042  -13.74442    3.67279
      H1     0.18168  -13.06997    4.27012

