60
frame 1 | Written by MDAnalysis XYZWriter (release 2.4.3)
       H    16.19654  -15.33956   -5.85356
       O    16.77423  -15.92146   -5.33772
      H1    16.64714  -16.85943   -5.61684
       H    14.43331  -16.89301  -15.26848
       O    15.35483  -16.75246  -15.42716
      H1    15.84206  -17.55454  -15.10315
       H    18.71109  -19.43427   -5.65094
       O    19.56180  -19.65382   -5.32166
      H1    19.49644  -19.78838   -4.34730
       H    13.24782  -19.32885   -8.13065
       O    13.65778  -19.15445   -8.98958
      H1    13.86589  -18.16924   -9.15400
       H    10.36121  -19.65211   -7.30421
       O    11.26622  -19.32609   -7.20967
      H1    11.25572  -18.63623   -7.91769
       H    12.15157  -19.62790  -10.44102
       O    11.29556  -19.68400  -10.89426
      H1    11.52030  -19.36317  -11.77838
       H    13.51807  -14.77015   -6.23596
       O    14.42817  -14.46470   -6.19821
      H1    14.43660  -13.81161   -5.45813
       H    17.60879  -20.03224  -14.95715
       O    17.44188  -19.10483  -14.70149
      H1    18.34288  -18.83689  -14.40585
       H    12.20948  -16.31810   -9.61875
       O    11.40193  -16.05425   -9.14205
      H1    10.71775  -16.46642   -9.67176
       H    19.16371  -12.58981   -9.92994
       O    19.41491  -12.79192  -10.89263
      H1    19.82864  -13.71469  -10.77775
       H    14.65750  -14.09670   -8.07869
       O    14.45778  -14.29781   -8.98859
      H1    13.95448  -13.57612   -9.26637
       H    13.06939  -19.22363  -13.82783
       O    12.20683  -18.85417  -13.68743
      H1    11.67297  -19.44975  -14.20000
       H    18.35276  -16.05667   -8.49734
       O    18.13670  -15.80623   -9.41518
      H1    18.96333  -15.43034   -9.71015
       H    17.93649  -11.21441   -8.96275
       O    18.50511  -11.95132   -8.56600
      H1    17.86483  -12.65391   -8.27294
       H    17.45434  -13.14279  -11.80489
       O    17.00971  -12.87892  -12.60683
      H1    17.55520  -13.26778  -13.30287
       H    16.72433  -17.68006  -12.06741
       O    15.82335  -18.01424  -11.93751
      H1    16.03246  -18.91752  -11.57073
       H    16.28661  -16.49918   -3.87926
       O    16.26449  -16.52873   -2.91920
      H1    15.42877  -16.98460   -2.64331
       H    16.51908  -19.00125   -6.60720
       O    16.79893  -18.70305   -5.70604
      H1    16.35568  -19.32148   -5.08901
       H    18.19712  -17.60917   -9.82326
       O    18.09984  -18.56230   -9.84919
      H1    17.59931  -18.85782   -9.12762
       H    14.40256  -15.84340   -9.61167
       O    14.28979  -16.68607  -10.10269
      H1    15.09301  -17.04447  -10.56304

