60
frame 0 | Written by MDAnalysis XYZWriter (release 2.4.3)
       H   -13.27965   11.76824   -4.31044
       O   -14.18127   12.09034   -4.27190
      H1   -14.41813   11.88887   -3.35180
       H   -18.18706   12.89004   -3.90230
       O   -18.79314   13.19975   -3.20630
      H1   -19.30938   13.90382   -3.57212
       H   -15.37948   15.86632   -7.59483
       O   -15.01805   16.63074   -8.10424
      H1   -15.49729   16.50967   -8.93362
       H   -16.24155   11.66669   -4.50266
       O   -17.18603   11.71788   -4.57356
      H1   -17.37337   11.90925   -5.51084
       H   -13.74196    8.80865   -4.98835
       O   -14.12021    8.92250   -4.10476
      H1   -15.06889    9.07761   -4.30779
       H   -17.05057   13.20848   -6.85377
       O   -17.63538   12.47511   -7.11244
      H1   -17.25760   12.23140   -7.96381
       H   -15.41707    8.89468   -8.13509
       O   -14.59228    9.24777   -8.49044
      H1   -14.11475    9.44988   -7.64870
       H   -16.98393   15.38371  -11.80751
       O   -17.15508   14.81410  -12.58989
      H1   -17.02119   13.87899  -12.32603
       H   -17.52589    8.27948   -4.40204
       O   -16.97722    9.06262   -4.13854
      H1   -17.39732    9.86486   -4.47994
       H   -17.03719   15.41993   -5.95501
       O   -16.29330   14.81602   -6.20216
      H1   -15.67534   14.86304   -5.44315
       H   -18.06696   11.18822  -11.50242
       O   -17.42811   11.70838  -12.03318
      H1   -17.37041   11.18995  -12.86102
       H   -18.13961   12.35907   -1.63309
       O   -17.62965   12.58513   -0.84497
      H1   -17.04703   11.80338   -0.76409
       H   -15.35029   15.03096  -10.51586
       O   -16.20078   15.06602  -10.05752
      H1   -16.37314   14.14186   -9.79675
       H   -16.61130    7.06470   -7.39125
       O   -16.85645    7.89395   -7.82740
      H1   -17.04216    7.69283   -8.73590
       H   -18.64155   17.16130   -5.94742
       O   -18.32600   16.55606   -5.27561
      H1   -17.78325   17.12095   -4.70266
       H   -13.89322   10.72776   -9.90060
       O   -13.72542   10.95131  -10.81869
      H1   -12.83118   11.37986  -10.76914
       H   -12.10545   14.11153   -6.42375
       O   -12.71758   13.53159   -6.88408
      H1   -12.84360   12.86885   -6.18070
       H   -15.26586   14.67432   -3.39322
       O   -14.62074   14.67770   -4.09866
      H1   -14.50383   13.73030   -4.36357
       H   -16.46723   12.07010  -10.58378
       O   -16.24823   12.34117   -9.66541
      H1   -15.24756   12.30776   -9.65935
       H   -17.82797    8.98796  -10.60208
       O   -17.24385    8.22549  -10.62693
      H1   -17.47668    7.72090  -11.43301

