60
frame 0 | Written by MDAnalysis XYZWriter (release 2.4.3)
       H    11.10822  -10.06651   -6.75973
       O    10.66834  -10.84392   -7.07056
      H1    11.36096  -11.20103   -7.66384
       H    10.58629  -14.67068   -9.05237
       O    10.37610  -13.80620   -8.70378
      H1    10.66013  -13.21432   -9.41960
       H    12.64257  -13.68153  -11.11742
       O    13.30798  -13.85295  -10.41938
      H1    14.11580  -13.60196  -10.89886
       H     8.75697  -12.73386   -8.47139
       O     8.35829  -12.08962   -7.86094
      H1     9.08914  -11.46471   -7.72413
       H    12.99092  -12.01999   -9.73709
       O    12.92188  -11.29397   -9.08412
      H1    12.29321  -10.69214   -9.50109
       H    11.17175  -14.24567   -7.05665
       O    11.55800  -14.55726   -6.23923
      H1    12.48140  -14.83429   -6.44212
       H    10.60913  -18.72595  -10.91883
       O    10.29333  -17.87665  -11.30329
      H1    10.75847  -17.88216  -12.16513
       H     6.75006  -12.09679  -11.69554
       O     7.18767  -12.64878  -11.01743
      H1     7.76352  -13.20785  -11.52957
       H     7.52948  -15.31579   -8.64106
       O     8.13651  -15.51548   -7.88732
      H1     8.86744  -14.91243   -8.02401
       H    11.83701  -12.54399   -5.60332
       O    12.59417  -12.05085   -5.30374
      H1    12.26946  -11.13689   -5.36213
       H     8.63930  -17.61520  -11.78214
       O     7.83760  -17.51123  -12.32967
      H1     8.11045  -16.89905  -13.01115
       H    10.55266  -16.71918   -9.82064
       O    10.96152  -16.43970   -8.99762
      H1    11.83747  -16.91026   -9.11253
       H    13.59568  -15.50623   -9.85968
       O    13.51992  -16.46572   -9.93518
      H1    14.42065  -16.71937   -9.69068
       H    14.43547  -13.55997   -6.62239
       O    14.34871  -14.51397   -6.53570
      H1    14.57253  -14.75413   -5.64337
       H     9.18652  -13.42853   -5.00936
       O     8.46380  -12.84878   -5.21546
      H1     8.57151  -12.72221   -6.17032
       H    11.09667  -18.03296   -7.48303
       O    11.63630  -18.83652   -7.46448
      H1    11.74150  -19.01110   -6.51902
       H    10.45651  -12.97396  -11.86059
       O    11.20547  -12.66113  -11.34879
      H1    11.42525  -11.86576  -11.85590
       H    11.16518  -16.13382   -5.44597
       O    10.64239  -16.68770   -4.82535
      H1    11.12222  -17.52091   -4.70760
       H     8.94298  -14.77812  -13.05974
       O     8.85442  -13.99714  -12.54432
      H1     8.94833  -13.28763  -13.17619
       H     7.06170  -18.03037   -8.89662
       O     7.91177  -18.48485   -8.88570
      H1     8.55189  -17.76117   -8.91739

