60
frame 0 | Written by MDAnalysis XYZWriter (release 2.4.3)
       H     5.36205    6.19298   13.25225
       O     5.01608    6.43699   12.38136
      H1     5.05544    5.53245   11.92367
       H     1.34034    3.10793    8.53893
       O     1.57196    4.03317    8.81326
      H1     0.78221    4.46067    9.13869
       H     3.04943    6.85433   11.92477
       O     2.45339    6.56671   11.21268
      H1     2.30552    7.34451   10.69205
       H     5.28457    3.14612    9.81745
       O     5.73634    2.74498    9.07420
      H1     5.47196    1.82186    9.03426
       H     4.57932   -2.01694   12.42118
       O     5.34688   -1.59756   11.99119
      H1     5.74317   -1.05461   12.67649
       H     3.60404   -1.78002    9.21249
       O     3.06282   -2.57653    9.37333
      H1     3.69857   -3.18593    9.80131
       H     3.28249    5.10296   11.01668
       O     3.88370    4.36351   10.94125
      H1     3.69624    4.07213   10.03268
       H     3.18885    2.38661   11.26963
       O     3.00040    1.43893   11.19939
      H1     2.06198    1.47193   10.96394
       H     0.22980    0.84662   10.98987
       O     0.45401    1.42207   10.27427
      H1     0.05442    2.27104   10.44343
       H     7.58886    2.68168   10.08883
       O     8.15429    1.89088   10.12963
      H1     7.96962    1.47537    9.27324
       H     6.01438    0.68447   13.33992
       O     5.73686    0.73588   14.25336
      H1     4.83678    1.04620   14.25638
       H     3.52006    4.23909   13.84842
       O     3.09594    3.64289   14.48865
      H1     2.16209    3.62492   14.17873
       H     0.15067    2.99008   13.07729
       O     0.58608    2.87014   13.93578
      H1     0.30384    3.69603   14.41111
       H     4.16171    0.09614   10.13327
       O     4.39331   -0.19677    9.25152
      H1     5.34748   -0.41069    9.22345
       H     0.74731    1.03141   12.89003
       O     0.15673    0.28837   12.69969
      H1     0.72282   -0.40319   12.28810
       H     3.40606    0.65825   15.79381
       O     2.88536    0.81591   14.99758
      H1     3.12094    1.71123   14.74224
       H    -0.92018    4.33263   11.07693
       O    -0.90145    3.75670   11.84052
      H1    -1.77386    3.36980   11.82934
       H     7.01946    4.92524   11.48182
       O     7.45112    5.12955   10.63060
      H1     8.34108    5.43436   10.88633
       H     0.71136   -2.40953   10.89418
       O     1.03054   -1.50347   10.69490
      H1     1.88023   -1.66317   10.25578
       H     3.39574    1.26736    7.67682
       O     2.43577    1.25309    7.73140
      H1     2.24516    0.64802    8.43564

