60
frame 0 | Written by MDAnalysis XYZWriter (release 2.4.3)
       H     0.64000    4.14360    4.01709
       O     0.55195    4.99032    4.47554
      H1     0.72141    4.79800    5.41182
       H    -1.54113    4.40021    4.84241
       O    -2.47418    4.66241    4.89251
      H1    -2.40252    5.60084    4.67361
       H     0.08786    5.43199    0.56200
       O    -0.68552    5.40441   -0.03447
      H1    -0.63788    4.56542   -0.45775
       H    -1.31997    7.54466    6.35966
       O    -0.39107    7.50731    6.08905
      H1    -0.40143    8.06721    5.30346
       H     4.40187    5.16224    1.50178
       O     3.97622    6.02195    1.63709
      H1     4.69866    6.63231    1.43575
       H     3.46602    5.99745    3.62815
       O     3.39792    6.06662    4.58545
      H1     2.52690    5.69658    4.80342
       H     2.17442    8.15250    2.54433
       O     2.37712    9.05986    2.77518
      H1     2.98029    8.98683    3.53960
       H     2.85461    5.52258    0.38209
       O     2.29568    5.49444   -0.38562
      H1     2.84108    5.72441   -1.14769
       H     1.34027    8.76935    0.31380
       O     1.87421    8.29571   -0.34209
      H1     1.66213    7.33268   -0.24632
       H    -1.07776   12.13570    2.62758
       O    -1.55362   11.49777    3.14639
      H1    -0.82431   10.90383    3.39958
       H     0.28095   10.93177    0.77548
       O     0.06273    9.98376    0.68966
      H1    -0.05792    9.95949   -0.24770
       H    -2.36841    7.08765    2.64801
       O    -2.32936    7.40833    3.51910
      H1    -2.51912    8.34771    3.45531
       H    -2.87895    7.74728   -1.57763
       O    -1.98375    7.67614   -1.89188
      H1    -1.90144    6.76698   -2.20211
       H    -2.54115    7.71244    0.97429
       O    -2.91698    6.85734    0.78922
      H1    -2.15520    6.37940    0.46029
       H     2.36433   11.45727    2.10394
       O     1.72547   12.03408    2.61495
      H1     1.93327   11.80868    3.53034
       H     0.98037    9.47621    3.57050
       O     0.23433    9.66120    4.17498
      H1     0.56852   10.25363    4.79984
       H     0.71020    9.33172   -1.63374
       O    -0.10022    9.72636   -1.88719
      H1    -0.77295    9.06941   -2.01508
       H    -3.02929   10.15556    1.66643
       O    -2.50602    9.37246    1.44387
      H1    -1.64318    9.76139    1.19074
       H     0.10324    7.59901    2.10093
       O     0.78766    6.92636    2.23085
      H1     0.58752    6.47188    3.02071
       H     2.86558    9.76801    0.82694
       O     3.17596   10.68819    0.63872
      H1     2.75897   10.91676   -0.19352

