60
frame 1 | Written by MDAnalysis XYZWriter (release 2.4.3)
       H    13.26896  -18.28853    0.86452
       O    13.65461  -17.76313    0.13090
      H1    13.30145  -18.16821   -0.66241
       H    14.83403  -16.67952    0.54805
       O    15.24326  -15.81130    0.69622
      H1    16.08582  -15.83833    0.18369
       H     6.27147  -15.52742    4.16797
       O     6.70257  -16.20148    4.67040
      H1     7.56274  -15.80771    4.99132
       H    10.72355  -13.04440    1.13973
       O    10.95715  -12.28931    0.58997
      H1    10.48348  -11.57255    1.04813
       H     8.76715  -12.88606    3.01695
       O     9.54835  -13.37276    2.77081
      H1     9.23911  -14.25955    2.63312
       H    11.07982  -17.25412    0.95709
       O    10.24545  -17.50879    0.54162
      H1    10.31536  -17.04298   -0.30524
       H    13.41307  -14.03809    5.64494
       O    13.92235  -13.71095    6.42940
      H1    14.01844  -14.54179    6.91287
       H    13.50398  -15.73777   -1.95287
       O    13.55999  -14.95379   -1.41616
      H1    14.20033  -15.23823   -0.72778
       H    14.98488  -18.51707    6.31605
       O    15.58882  -18.87222    6.96434
      H1    16.15291  -18.11674    7.17762
       H    11.16553  -15.80805    5.37751
       O    11.47555  -16.67604    5.02692
      H1    10.84122  -17.34286    5.32690
       H    13.29063  -17.12395    4.57576
       O    13.99008  -17.75500    4.73180
      H1    14.73491  -17.47170    4.17197
       H    10.06212  -14.38122    7.49366
       O     9.86898  -14.61332    6.56435
      H1     9.97533  -13.75748    6.07826
       H     8.94631  -16.17593    1.21269
       O     8.44511  -15.78136    1.92772
      H1     7.65107  -15.47115    1.45525
       H    13.71673  -16.70960    6.82497
       O    14.19886  -16.28455    7.51204
      H1    15.12600  -16.49480    7.31281
       H    13.64368  -13.37959    3.35995
       O    12.93410  -13.95982    3.71513
      H1    12.99518  -14.74473    3.17308
       H     9.28523  -18.64069    2.70841
       O     8.74749  -18.28049    3.42449
      H1     8.31588  -17.46724    3.09225
       H    11.81977  -16.48188    3.26134
       O    12.28356  -16.27526    2.42306
      H1    13.07839  -16.86075    2.34626
       H    12.10312  -11.96395    4.38243
       O    11.86557  -11.28023    5.02685
      H1    11.55541  -10.52398    4.52349
       H    15.87519  -16.23672    2.62050
       O    16.12795  -16.50039    3.49178
      H1    16.09728  -15.67385    3.99337
       H     9.59622  -18.64512    5.01778
       O    10.30933  -18.82774    5.68608
      H1     9.86080  -19.13231    6.47861

