60
frame 0 | Written by MDAnalysis XYZWriter (release 2.4.3)
       H    13.89967   17.30597   -0.68572
       O    13.64736   16.36923   -0.53361
      H1    13.12282   16.40847    0.27978
       H    13.84256   17.95151    1.88282
       O    13.46595   17.75969    2.73211
      H1    13.33187   18.62942    3.16544
       H    16.61453   17.00245    2.72211
       O    17.13943   17.62588    2.26197
      H1    17.97859   17.71930    2.72679
       H     7.17096   17.76728    4.75541
       O     7.58837   17.36032    3.97744
      H1     8.08153   16.63369    4.37880
       H    10.64370   18.34854    0.86120
       O    11.53224   18.17461    0.58957
      H1    11.38458   17.59694   -0.18530
       H    10.77464   16.31827   -2.42693
       O    11.11101   16.38168   -1.55424
      H1    12.06747   16.22958   -1.74442
       H    13.18053   11.99593    5.54487
       O    12.90204   12.49612    4.76768
      H1    12.09650   12.03165    4.50255
       H    14.64170   16.43179    6.33300
       O    15.08970   16.98563    7.02013
      H1    15.50212   17.67902    6.47139
       H    10.31755   16.97076    3.89808
       O    10.65479   17.62640    3.28040
      H1    11.45448   17.24646    2.93385
       H    17.98886   18.21751    6.55720
       O    17.76101   17.34685    6.25954
      H1    17.15324   17.07469    6.96867
       H    15.23028   19.00176   -2.03582
       O    14.51039   19.05538   -1.40364
      H1    13.70749   18.93441   -1.93648
       H     9.48706   16.53479    1.61789
       O     9.27371   15.94869    0.89882
      H1    10.12279   15.54532    0.65824
       H    13.16689   17.14929    7.32215
       O    12.31252   16.70679    7.31421
      H1    11.74962   17.31025    6.76757
       H    12.81562   15.43156    6.31656
       O    13.45756   14.90684    5.80931
      H1    12.94385   14.15745    5.45142
       H    15.14011   15.12440    4.22116
       O    15.37822   15.90589    3.70724
      H1    14.55184   16.37929    3.72649
       H    17.73950   16.79640    0.47585
       O    18.31818   16.47269   -0.22306
      H1    18.45955   15.52263    0.05583
       H    10.21649   13.53307    1.70311
       O     9.50710   12.89954    1.93764
      H1     9.05540   13.27987    2.70294
       H     9.02417   14.63063    4.69097
       O     9.61837   15.30650    5.04864
      H1     9.29197   15.31952    5.94625
       H    14.99239   15.05306    2.23551
       O    14.53292   14.68875    1.46196
      H1    14.74422   15.28895    0.73479
       H    12.49391   14.40199    1.11913
       O    11.58456   14.41300    0.82750
      H1    11.48246   13.73757    0.14794

