60
frame 0 | Written by MDAnalysis XYZWriter (release 2.4.3)
       H   -18.50897   14.41114   11.04354
       O   -17.95091   13.71812   10.60643
      H1   -18.47999   13.35567    9.84475
       H   -16.76718   16.42579    5.60248
       O   -17.33144   17.16703    5.94091
      H1   -17.06006   17.68924    6.72140
       H   -14.75862   15.98610   14.53483
       O   -15.39545   15.39494   14.09746
      H1   -16.21172   15.53541   14.62962
       H   -17.67905   19.12893    8.31481
       O   -16.87840   18.61651    8.09336
      H1   -16.95716   17.82106    8.63754
       H   -14.52348   18.70808   13.18885
       O   -14.72566   19.65311   13.06129
      H1   -13.89956   20.13802   13.18582
       H   -14.63845   17.03167    8.72742
       O   -14.57777   16.23011    8.11096
      H1   -15.15799   15.59322    8.61155
       H   -19.33978   11.72485   13.88839
       O   -18.95857   12.22273   14.62834
      H1   -19.19315   11.64320   15.41389
       H   -12.84414   17.82635   11.69232
       O   -13.21192   17.13863   11.06670
      H1   -13.72925   17.64667   10.43190
       H   -13.22447   17.61517   15.35846
       O   -13.33147   17.13556   14.52690
      H1   -12.79583   16.33882   14.60147
       H   -18.64109   13.97015   14.72329
       O   -18.40240   14.91788   14.80167
      H1   -18.84838   15.32082   15.61604
       H   -20.10172   19.45814    9.35071
       O   -19.18917   19.76630    9.52171
      H1   -18.78979   19.39532   10.30990
       H   -19.77193   13.54627    8.09259
       O   -18.91920   13.68719    7.74623
      H1   -19.09073   14.44480    7.16293
       H   -15.76039   16.43593   12.83905
       O   -15.84918   17.12780   12.16656
      H1   -15.02982   17.35338   11.64892
       H   -19.02665   15.86818   13.15853
       O   -19.20354   15.88138   12.17353
      H1   -19.38299   16.83513   12.11308
       H   -15.49441   18.89628    9.01577
       O   -14.62308   18.81935    9.47314
      H1   -13.99462   19.26884    8.90628
       H   -16.47794   15.02471   17.48585
       O   -17.08643   14.54005   18.09971
      H1   -17.95682   14.84063   17.77850
       H   -17.78901   15.60079    9.71521
       O   -17.22038   16.33393    9.71852
      H1   -16.83200   16.36599   10.59974
       H   -18.90550   16.38094    6.19593
       O   -19.64863   15.73106    5.91401
      H1   -20.46831   16.20330    6.12818
       H   -17.08594   18.38792   11.66421
       O   -17.89481   18.89282   11.52009
      H1   -18.14420   18.90325   12.45127
       H   -16.57424   13.72284    8.92721
       O   -15.75352   13.54349    8.39826
      H1   -16.06191   13.34898    7.46490

