60
frame 0 | Written by MDAnalysis XYZWriter (release 2.4.3)
       H    -8.83353   19.48413   17.37205
       O    -9.69447   19.31252   16.94612
      H1    -9.85858   18.38873   17.11875
       H   -10.70480   12.31305   13.42456
       O   -10.21286   13.09077   13.12008
      H1   -10.07671   13.61762   13.93128
       H   -14.20155   17.85039   13.32847
       O   -14.56209   16.98548   13.39676
      H1   -13.83104   16.45943   13.75237
       H   -11.23390   13.93265   16.91705
       O   -12.14540   14.16274   16.70865
      H1   -12.45523   14.16786   17.61432
       H   -16.25340   10.21369   13.85942
       O   -15.50596   10.78897   13.70008
      H1   -15.17197   11.00113   14.58271
       H    -8.55229   10.20099   18.50475
       O    -8.10137   10.70586   19.19019
      H1    -8.45151   11.58338   19.16089
       H    -9.21101   12.74958   17.76387
       O    -9.21591   13.17074   18.65189
      H1    -9.93881   12.74362   19.13447
       H   -11.02808   11.05440   14.57913
       O   -11.54476   10.83943   13.81303
      H1   -12.33860   11.35465   13.96053
       H   -17.84436   13.66256   16.49418
       O   -17.00721   14.01675   16.14304
      H1   -16.35297   13.33120   16.28181
       H   -13.20741   10.60679   18.11654
       O   -13.19159   11.54074   18.36060
      H1   -13.94607   11.67626   18.98312
       H   -14.42595   12.03078   17.04343
       O   -14.75515   12.66086   16.38691
      H1   -14.06890   13.35886   16.38860
       H   -14.19495   13.03408   14.74181
       O   -13.52243   13.00584   14.04998
      H1   -13.85248   13.53215   13.32334
       H    -9.29881   15.40751   18.06233
       O    -9.51492   16.21974   17.61711
      H1    -9.60648   15.88790   16.71865
       H   -13.54530   16.71584   15.91843
       O   -12.69201   16.45640   15.48054
      H1   -12.47862   15.56173   15.84704
       H   -12.06313   17.28742   18.10624
       O   -11.64270   16.88336   18.88113
      H1   -10.79143   16.60515   18.52776
       H    -9.24058   11.67542   15.87888
       O   -10.19219   11.64260   16.06619
      H1   -10.31361   10.97857   16.77135
       H   -15.51903   15.35491   18.29817
       O   -16.39536   15.69531   18.17356
      H1   -16.73568   15.16775   17.44339
       H   -10.12879   15.36418   14.99135
       O    -9.51721   14.71200   15.35977
      H1    -8.66123   14.96065   14.97435
       H   -15.24809    9.33137   16.43239
       O   -14.47900    9.40158   17.03926
      H1   -13.79554    8.92461   16.53452
       H   -15.59659   18.01785   16.24392
       O   -14.91489   17.66815   16.83801
      H1   -15.40584   17.01519   17.36113

