60
frame 0 | Written by MDAnalysis XYZWriter (release 2.4.3)
       H     1.18488  -13.48162    8.64953
       O     1.15031  -13.46932    9.62155
      H1     1.44820  -14.33639    9.90017
       H     5.82528  -12.74062   15.21078
       O     5.17789  -12.06367   14.95917
      H1     4.62762  -11.93410   15.73537
       H     3.36212  -14.13041   12.73238
       O     3.14397  -13.20619   12.88283
      H1     3.88507  -12.93307   13.43849
       H     1.38716  -12.77488   12.76510
       O     0.47673  -13.02047   12.85537
      H1     0.15385  -12.20040   13.25846
       H     3.23292  -10.18631   13.06162
       O     2.29060  -10.06349   12.93628
      H1     2.04810  -10.45168   12.09029
       H     3.26488  -11.23689   10.36359
       O     2.37373  -10.92459   10.27279
      H1     1.86957  -11.73344   10.10955
       H     4.85387  -18.55457   13.56610
       O     4.09167  -18.40529   12.98876
      H1     4.06577  -17.43829   12.99383
       H     7.75502  -14.28508   14.17058
       O     7.34705  -13.43312   14.03134
      H1     7.70732  -13.16522   13.13181
       H     1.24895  -14.16055   14.15158
       O     1.46313  -14.65478   14.94750
      H1     0.69512  -15.22278   15.09565
       H     6.09335  -10.03416   12.91707
       O     6.94336  -10.28220   13.29980
      H1     7.54297   -9.71652   12.76159
       H     5.76505  -13.39469   10.89940
       O     6.35587  -14.12367   11.09900
      H1     6.26105  -14.66849   10.31124
       H     1.89078  -13.41884   16.08627
       O     2.02565  -12.63795   16.61025
      H1     2.56513  -12.92079   17.37704
       H     6.04199  -15.07452   12.59038
       O     5.77875  -15.89544   13.04239
      H1     5.34930  -15.59713   13.85249
       H     5.31571  -11.00527   10.15693
       O     5.15598  -11.94255   10.25695
      H1     5.03267  -12.14492    9.31826
       H     5.93309  -10.03693   16.36075
       O     6.13772   -9.23032   15.93773
      H1     6.35873   -9.51375   15.02873
       H     7.99871  -11.42590   12.16271
       O     8.23164  -12.24843   11.70526
      H1     7.36896  -12.59571   11.48348
       H     1.88861  -16.08643   12.62790
       O     2.74072  -16.05405   12.19700
      H1     2.61686  -16.01010   11.24628
       H     3.18811  -15.72761   14.60219
       O     3.99590  -15.84334   15.14258
      H1     3.80711  -16.69143   15.57976
       H     0.81141  -10.14487   13.89813
       O    -0.01532  -10.56417   14.20031
      H1    -0.68540  -10.01660   13.79586
       H     4.08925  -15.18295   17.17075
       O     4.17018  -15.31747   18.13295
      H1     3.30258  -15.66594   18.41272

