60
frame 0 | Written by MDAnalysis XYZWriter (release 2.4.3)
       H   -13.93701  -14.19407   -5.16903
       O   -13.68010  -14.25021   -6.09786
      H1   -13.85026  -13.36760   -6.47584
       H   -12.43547   -7.92210   -6.43467
       O   -12.39060   -7.84131   -5.49682
      H1   -13.25709   -8.13600   -5.21576
       H   -14.82407  -13.72535    2.27408
       O   -15.70098  -13.28707    2.11587
      H1   -15.50325  -12.82347    1.27662
       H   -17.31553   -8.80760    0.11459
       O   -16.60596   -9.01560    0.76832
      H1   -16.47363   -9.94628    0.52195
       H   -18.24042  -13.61601   -4.03457
       O   -18.51306  -12.72559   -3.74876
      H1   -17.72976  -12.20755   -3.89234
       H   -15.24612  -11.37331   -3.01945
       O   -15.90957  -11.75246   -3.59218
      H1   -15.75477  -11.40448   -4.45490
       H   -15.15411   -7.98289   -6.44429
       O   -15.07955   -8.29804   -5.53543
      H1   -15.38968   -9.18733   -5.56755
       H   -18.83622  -10.51189   -1.85192
       O   -18.26886   -9.76559   -1.58263
      H1   -17.73688   -9.55134   -2.37951
       H   -16.10254  -12.50744   -6.33713
       O   -15.95182  -11.57040   -6.34310
      H1   -16.73959  -11.17631   -6.76624
       H   -13.03615  -12.65165    0.19622
       O   -13.04042  -13.34197   -0.47119
      H1   -13.86429  -13.18752   -0.94998
       H   -13.89422  -11.19448   -6.78073
       O   -12.92381  -11.20294   -6.79215
      H1   -12.75180  -11.07546   -7.73170
       H   -13.08285  -11.46433   -2.70452
       O   -13.67340  -10.83410   -2.28531
      H1   -13.07962  -10.05402   -2.18130
       H   -10.93469  -13.13186   -2.86323
       O   -11.24003  -12.31611   -2.43722
      H1   -11.89650  -12.62478   -1.82016
       H   -17.81444  -12.61492   -2.10247
       O   -17.68650  -12.79450   -1.13978
      H1   -18.56530  -13.16653   -0.93306
       H   -11.45666   -9.08548   -4.56012
       O   -10.84583   -9.56022   -3.98478
      H1   -11.01363  -10.50268   -4.20572
       H   -11.34172   -8.82710   -1.05928
       O   -12.20524   -8.42838   -1.00356
      H1   -12.39153   -8.37221   -0.04842
       H   -14.86397  -14.23561   -3.52215
       O   -13.93277  -14.15790   -3.37144
      H1   -13.59670  -15.04830   -3.16346
       H   -16.29083  -11.64961   -0.59669
       O   -15.48496  -11.44364   -0.04595
      H1   -14.86704  -11.02755   -0.66569
       H   -17.90755   -9.65845   -5.25494
       O   -17.77835   -9.30327   -4.35670
      H1   -18.26927   -8.45468   -4.34874
       H   -16.86197  -14.17221   -1.38811
       O   -16.34010  -14.95510   -1.62224
      H1   -16.30939  -15.44311   -0.77053

