60
frame 0 | Written by MDAnalysis XYZWriter (release 2.4.3)
       H     5.62204   -1.14955    5.99364
       O     5.60093   -0.27387    5.61327
      H1     6.13993   -0.35361    4.81106
       H     9.93488   -2.03467    2.66272
       O    10.07679   -2.54532    1.88625
      H1     9.54008   -2.05395    1.23465
       H    10.28429   -4.12164    4.84976
       O    10.06265   -4.86578    4.26066
      H1    10.32371   -4.44548    3.44904
       H    12.39552    3.31065    4.20693
       O    11.73193    3.83113    4.70898
      H1    12.18923    4.65685    4.92891
       H     7.83584   -0.37994    7.49995
       O     7.30011    0.35729    7.67549
      H1     6.62349    0.30100    6.98936
       H    11.57146   -3.64568    6.91422
       O    10.61189   -3.74120    6.94685
      H1    10.49296   -4.60136    7.39433
       H    11.36028    0.34365    8.82390
       O    11.37842    0.94118    8.06294
      H1    12.29111    1.24013    8.00666
       H     8.22587   -4.48597    4.39626
       O     7.38747   -4.35604    4.90680
      H1     6.78427   -4.08244    4.21080
       H     9.20589   -0.08674    4.11361
       O     9.56863   -0.97059    4.12509
      H1    10.46853   -0.77353    4.39068
       H    13.24543   -2.91817    8.19864
       O    13.06795   -2.90579    7.26805
      H1    13.81043   -3.41876    6.91304
       H    13.46315    0.43046    5.34722
       O    14.30916    0.77618    5.04031
      H1    14.87676    0.00660    4.92292
       H     9.49778    2.27544    6.24786
       O     9.87204    2.26758    5.35229
      H1    10.62464    2.88157    5.41980
       H    11.03857   -0.53160   -1.37851
       O    11.39673   -1.01461   -0.63367
      H1    11.18272   -0.40858    0.10728
       H    13.35553   -2.61754    3.29668
       O    13.53488   -1.69264    3.48400
      H1    13.05680   -1.51980    4.30587
       H    11.55548   -0.03208    6.38831
       O    12.12387   -0.55069    5.84601
      H1    12.51548   -1.20299    6.44914
       H     6.88662    0.07977    2.52766
       O     6.72368   -0.58771    3.17944
      H1     7.33780   -1.29292    3.02221
       H    10.54984    1.68429    1.74160
       O    11.06992    1.26619    1.01535
      H1    11.70992    1.92961    0.68196
       H     8.87537    3.03571    2.40031
       O     9.20919    2.19417    2.71244
      H1     9.59951    2.31565    3.58943
       H     9.51401   -2.61586    7.58067
       O     8.78986   -2.02608    7.79158
      H1     8.10076   -2.41949    7.25579
       H     7.60283    1.75503    1.98839
       O     6.89496    1.45770    1.42799
      H1     6.20268    2.09902    1.55938

