60
frame 0 | Written by MDAnalysis XYZWriter (release 2.4.3)
       H     1.12583   -9.58123   -8.66137
       O     1.61427   -9.78973   -9.48626
      H1     1.75377   -8.93458   -9.87986
       H    -3.63089   -9.45609   -4.56614
       O    -4.56936   -9.29282   -4.62896
      H1    -4.70145   -8.84608   -5.46533
       H     1.56763   -6.53046   -8.55548
       O     1.39364   -6.14423   -7.68402
      H1     0.46936   -5.84216   -7.76402
       H     1.14828   -7.25244   -6.31307
       O     0.75885   -7.55072   -5.47121
      H1    -0.06060   -7.94282   -5.77158
       H    -1.99780   -8.54555   -8.41021
       O    -2.36700   -8.08429   -9.16856
      H1    -1.70258   -8.24718   -9.84419
       H    -5.22890   -5.59885  -10.67817
       O    -4.60798   -6.30079  -10.50618
      H1    -3.97347   -6.20969  -11.23951
       H    -2.29627   -6.42390   -7.36964
       O    -1.45226   -6.53246   -6.92201
      H1    -1.47680   -5.89118   -6.18840
       H    -3.89777   -6.29357   -8.91084
       O    -3.84047   -6.13626   -7.95394
      H1    -4.15882   -5.22118   -7.84970
       H    -1.37085  -10.83755   -5.02598
       O    -1.41768   -9.88133   -5.11540
      H1    -1.22281   -9.58615   -4.20858
       H    -2.03539   -6.99772  -11.82221
       O    -2.23874   -6.14561  -12.24268
      H1    -1.91101   -5.51290  -11.59964
       H    -0.07586   -8.47120  -11.92850
       O    -1.00931   -8.47481  -11.57583
      H1    -1.43103   -9.31074  -11.88373
       H    -2.24474  -10.92858   -8.23730
       O    -1.84692  -11.60763   -7.68252
      H1    -2.63379  -12.03753   -7.32842
       H    -5.22521   -6.82245   -7.16006
       O    -5.77127   -7.33073   -6.53370
      H1    -6.29091   -7.94702   -7.04489
       H    -0.51047   -3.84470   -7.94914
       O    -0.72830   -4.45556   -8.67177
      H1    -1.21363   -5.12649   -8.18688
       H    -5.96594   -7.56340  -11.20257
       O    -6.83596   -7.88677  -11.42298
      H1    -6.72639   -8.51646  -12.15639
       H    -1.35082   -3.89302  -10.22494
       O    -1.85080   -3.81614  -11.03395
      H1    -2.69807   -3.44492  -10.76273
       H    -5.56871  -10.54882   -9.17611
       O    -6.51325  -10.76991   -9.09420
      H1    -6.94718   -9.91724   -8.97406
       H    -0.96471   -8.13321   -7.37967
       O    -0.62445   -9.02191   -7.47141
      H1    -0.77736   -9.45953   -6.59435
       H    -3.59303  -11.15355  -12.54476
       O    -3.06040  -10.92626  -11.77213
      H1    -2.54247  -11.70368  -11.52100
       H    -3.56365  -10.34777  -10.19060
       O    -3.84305  -10.26636   -9.25155
      H1    -3.54743   -9.35018   -9.09708

