60
frame 0 | Written by MDAnalysis XYZWriter (release 2.4.3)
       H    -3.90026    2.26538   -7.24208
       O    -4.68013    1.80664   -6.90578
      H1    -5.44471    2.25586   -7.34202
       H    -5.00677    0.35827   -5.54761
       O    -5.38152   -0.52865   -5.49578
      H1    -5.90666   -0.47065   -4.68963
       H    -3.26250    3.16155   -3.09488
       O    -3.72330    2.50716   -3.66359
      H1    -3.92683    1.78875   -3.04461
       H    -1.98069    2.18820   -6.06425
       O    -1.82143    1.47653   -5.40758
      H1    -2.41389    1.70134   -4.67438
       H    -2.65348    5.53264   -6.13381
       O    -3.41394    6.08780   -6.38467
      H1    -2.96371    6.86047   -6.71986
       H    -5.94135    7.53760   -4.03210
       O    -6.78548    7.93655   -3.72253
      H1    -7.07841    8.55284   -4.41544
       H    -7.25486    2.27030   -1.98292
       O    -7.36626    1.35167   -1.80361
      H1    -8.34953    1.30008   -1.77445
       H    -6.64160    5.18716   -7.47893
       O    -6.65705    6.15577   -7.34814
      H1    -7.35005    6.27321   -6.66819
       H    -6.25229    3.38208   -8.90958
       O    -5.56733    3.05341   -9.49058
      H1    -5.97238    2.98103  -10.34073
       H    -7.58050    6.67642   -4.42071
       O    -8.07823    5.99033   -4.88792
      H1    -7.44247    5.23247   -4.91259
       H    -8.86637    1.20838   -4.51110
       O    -9.69986    1.32375   -4.04515
      H1    -9.45256    2.05890   -3.46998
       H    -4.05915    6.51614   -4.68370
       O    -4.20246    7.12651   -3.93981
      H1    -3.75117    6.68687   -3.19352
       H    -3.35147   -0.26075   -2.57625
       O    -4.19347    0.17057   -2.40556
      H1    -4.81448   -0.42536   -2.82060
       H    -6.91008    0.13320   -5.94512
       O    -7.64199    0.77080   -6.01464
      H1    -8.27666    0.33784   -6.60074
       H    -6.51671    3.45643   -5.74347
       O    -6.20600    3.80370   -4.88721
      H1    -5.30633    3.43911   -4.91013
       H    -2.54701    1.70706   -8.63809
       O    -2.31042    2.25492   -7.87374
      H1    -1.85331    3.00223   -8.28944
       H    -0.50252    4.65282   -5.63702
       O    -1.31369    4.54847   -6.16138
      H1    -0.98287    4.51017   -7.05652
       H    -6.37858    4.28851   -3.14629
       O    -6.73240    4.56734   -2.28203
      H1    -6.02783    4.96473   -1.73112
       H    -7.72498    2.37789   -6.77024
       O    -7.53661    3.21923   -7.21751
      H1    -8.42315    3.56673   -7.31076
       H    -3.63830    4.72233   -1.69699
       O    -2.97909    4.91448   -2.41477
      H1    -2.18837    4.45325   -2.10982

