60
frame 0 | Written by MDAnalysis XYZWriter (release 2.4.3)
       H    -1.98069    2.18820   -6.06425
       O    -1.82143    1.47653   -5.40758
      H1    -2.41389    1.70134   -4.67438
       H     3.43675    1.75004   -8.91611
       O     4.29319    1.72146   -8.51133
      H1     4.52317    0.79992   -8.50759
       H    -0.93724   -1.65255   -4.27964
       O    -0.74135   -1.24694   -5.13254
      H1    -1.02635   -0.35215   -5.03634
       H     2.98358    4.07465   -7.08124
       O     3.39747    3.40360   -6.52580
      H1     3.70930    2.78460   -7.18631
       H     0.82564    2.03488   -4.31932
       O     0.29088    2.63097   -3.79262
      H1    -0.56527    2.47340   -4.18069
       H    -0.53979    1.37048   -7.24539
       O     0.38337    1.14842   -7.55074
      H1     0.56544    1.84969   -8.21282
       H     1.51823    0.10853   -6.70014
       O     2.08363   -0.44483   -6.18198
      H1     2.84419   -0.57308   -6.73058
       H    -4.09531    0.27570   -7.82896
       O    -3.75285   -0.15568   -8.59109
      H1    -3.03833   -0.71555   -8.22287
       H     0.16432   -0.55657  -11.55579
       O    -0.76432   -0.61340  -11.78341
      H1    -1.19709    0.15643  -11.39844
       H     1.35380   -2.48424   -8.99529
       O     2.31476   -2.52760   -8.97652
      H1     2.54200   -3.41741   -8.67419
       H     0.36335   -2.81127   -5.59384
       O     0.95425   -3.01583   -6.33409
      H1     1.25746   -2.13070   -6.60659
       H    -2.54701    1.70706   -8.63809
       O    -2.31042    2.25492   -7.87374
      H1    -1.85331    3.00223   -8.28944
       H    -2.75742    2.04513  -11.52509
       O    -2.52851    1.40453  -10.83944
      H1    -3.32995    0.93433  -10.72361
       H    -1.05729    5.00710   -9.87321
       O    -0.73162    4.24001   -9.38682
      H1     0.26363    4.33475   -9.42858
       H     0.16719    3.85377  -12.57828
       O    -0.05326    2.97910  -12.34324
      H1    -0.29760    3.00178  -11.39629
       H    -1.69722   -1.96555   -6.45039
       O    -2.21646   -2.26709   -7.19953
      H1    -1.59184   -2.26751   -7.91980
       H     1.92796    1.89765  -10.62504
       O     1.72383    2.52521   -9.91282
      H1     2.00453    3.38550  -10.29664
       H    -0.50252    4.65282   -5.63702
       O    -1.31369    4.54847   -6.16138
      H1    -0.98287    4.51017   -7.05652
       H    -0.26662   -0.61539   -9.11012
       O    -0.52076   -1.54471   -9.10698
      H1    -0.96694   -1.71248   -9.93656
       H     2.86500    0.86376   -4.95319
       O     3.01878    1.66733   -4.46225
      H1     2.89009    2.36824   -5.12521

