60
frame 0 | Written by MDAnalysis XYZWriter (release 2.4.3)
       H    -3.42658    4.34910   13.80140
       O    -4.00968    4.41481   14.53072
      H1    -3.69929    5.24716   14.95080
       H    -7.71059    9.87907   13.02750
       O    -6.91380   10.36755   13.28010
      H1    -6.85026   11.08854   12.62485
       H    -5.42314    4.39867    9.94495
       O    -5.14381    4.60386   10.89296
      H1    -4.57383    5.36986   10.80932
       H    -2.87847    5.52782   16.66996
       O    -3.42281    6.27675   16.32185
      H1    -2.77694    6.91755   15.97388
       H    -1.70648    8.66812   14.70994
       O    -1.79229    8.21180   15.53484
      H1    -1.00587    8.54388   16.03483
       H    -1.24714    8.63671    9.77118
       O    -2.14473    8.55338   10.10435
      H1    -2.12466    9.13426   10.85125
       H     1.12780    8.84660   15.27502
       O     0.70263    9.51081   15.82415
      H1     1.42498    9.96230   16.25201
       H    -2.80491    7.07506   11.10893
       O    -3.16303    6.39096   11.67993
      H1    -3.56123    6.83661   12.43861
       H    -1.64188   14.74979   11.84437
       O    -1.30246   14.21514   12.55251
      H1    -1.82202   13.43343   12.51363
       H    -3.85627    8.93610   13.76083
       O    -3.16135    9.24598   13.16041
      H1    -3.60690    9.83410   12.52333
       H    -0.45026    6.18101   13.40963
       O    -0.13953    7.02033   13.04972
      H1    -0.97516    7.40305   12.65920
       H    -4.40629   10.56967   10.36403
       O    -4.20609   10.83663   11.27595
      H1    -4.43605   11.78447   11.29384
       H    -4.18043   11.03406    7.81754
       O    -4.37101   10.32247    8.45037
      H1    -3.50159   10.14299    8.74193
       H     0.93207   11.79118   13.72980
       O     0.02801   11.58986   13.98862
      H1     0.16309   10.87286   14.61754
       H    -6.15601    7.94717   13.56042
       O    -5.43500    7.49225   13.98524
      H1    -5.78595    7.32213   14.86315
       H    -1.46014    4.72961   15.73795
       O    -1.05314    5.23097   14.98053
      H1    -0.85396    6.09311   15.39348
       H    -6.93917   11.76238   16.02175
       O    -7.39904   10.94363   15.81355
      H1    -7.18691   10.85088   14.86082
       H    -5.58408   13.53062   12.44734
       O    -4.66284   13.43587   12.18234
      H1    -4.19784   12.98530   12.90879
       H    -1.10555   11.37828   10.62714
       O    -0.26624   11.06766   11.03578
      H1    -0.38414   11.30667   11.95901
       H    -3.10630   11.27714   14.36007
       O    -3.18512   12.22117   14.15992
      H1    -2.36929   12.58015   14.51574

