60
frame 0 | Written by MDAnalysis XYZWriter (release 2.4.3)
       H    -6.23201  -12.81145  -11.52311
       O    -6.91169  -12.10823  -11.41058
      H1    -6.82073  -11.78075  -10.51355
       H    -4.99115  -17.34199   -9.39995
       O    -4.10039  -17.51847   -9.00856
      H1    -3.58719  -16.73229   -9.10911
       H    -2.55159  -13.18000   -4.36344
       O    -3.49939  -12.91842   -4.44332
      H1    -3.91871  -13.74459   -4.71808
       H    -6.31820  -12.81846   -2.92022
       O    -6.94798  -13.07644   -3.64838
      H1    -7.28873  -13.92269   -3.35845
       H    -6.56497  -15.66089   -9.50926
       O    -6.54670  -16.59856   -9.75535
      H1    -6.97692  -16.56781  -10.62069
       H    -5.93675  -13.80389   -7.61771
       O    -6.55355  -14.41886   -8.05960
      H1    -7.00318  -13.77407   -8.57211
       H    -7.53333  -15.90530   -4.46048
       O    -7.04747  -16.00625   -3.61848
      H1    -7.11259  -16.94868   -3.47841
       H    -2.24474  -10.92858   -8.23730
       O    -1.84692  -11.60763   -7.68252
      H1    -2.63379  -12.03753   -7.32842
       H    -8.08921  -10.42900   -6.39841
       O    -8.93402  -10.65114   -6.82667
      H1    -8.73434  -11.44582   -7.33718
       H    -8.50598  -16.07361   -6.29691
       O    -8.43383  -15.26339   -5.79424
      H1    -7.88729  -14.70900   -6.35865
       H    -9.89754  -13.27623  -11.41780
       O    -9.62449  -12.59026  -10.78216
      H1    -8.73810  -12.42535  -11.10886
       H    -5.21413  -15.84357   -5.85204
       O    -4.84200  -15.21518   -5.20742
      H1    -5.50008  -15.29922   -4.53917
       H    -8.71340  -17.23190   -7.97024
       O    -7.87690  -17.25496   -7.46614
      H1    -7.26352  -16.86506   -8.11814
       H   -12.09952  -14.80495   -6.82515
       O   -11.30263  -15.17231   -7.24249
      H1   -10.70012  -15.22569   -6.45065
       H    -5.56871  -10.54882   -9.17611
       O    -6.51325  -10.76991   -9.09420
      H1    -6.94718   -9.91724   -8.97406
       H    -4.63589  -14.74715  -12.04027
       O    -4.53233  -13.80665  -11.83841
      H1    -4.36344  -13.33432  -12.70438
       H    -4.98006  -17.29062   -7.45855
       O    -5.31818  -17.46633   -6.55107
      H1    -6.26672  -17.65073   -6.75614
       H    -9.38151  -12.99724   -9.17098
       O    -8.92853  -13.05623   -8.28655
      H1    -9.58752  -13.45634   -7.72986
       H    -4.20798  -12.67020   -6.06047
       O    -4.48283  -12.51663   -6.96167
      H1    -5.31755  -12.00964   -6.89342
       H    -5.94321  -10.58261   -4.98380
       O    -6.57492  -11.00562   -5.55034
      H1    -6.69979  -11.89127   -5.14247

