60
frame 0 | Written by MDAnalysis XYZWriter (release 2.4.3)
       H   -16.47782   -3.92673  -15.72708
       O   -17.11157   -4.48332  -16.20013
      H1   -17.97696   -4.23386  -15.82362
       H   -14.34904    1.92596  -17.21754
       O   -14.94779    2.47811  -17.76954
      H1   -15.03249    1.97947  -18.57373
       H   -18.18274    3.94692  -17.89337
       O   -17.65178    4.10125  -18.68421
      H1   -17.38781    5.02366  -18.58308
       H   -17.02009    0.64400  -10.34333
       O   -16.85701    1.44531  -10.86305
      H1   -17.27935    1.28930  -11.70887
       H   -17.15348   -1.08918  -13.71488
       O   -17.31328   -0.39468  -13.06537
      H1   -16.77131   -0.61808  -12.29276
       H   -16.24249    1.26727  -13.55840
       O   -15.42411    1.77270  -13.73471
      H1   -15.61458    2.62687  -13.36190
       H   -13.93453    4.15097  -17.68331
       O   -13.16441    4.69330  -17.39254
      H1   -13.40380    5.57509  -17.73041
       H   -10.57874   -0.57796  -14.55998
       O   -10.77217   -0.77703  -15.48210
      H1   -11.63048   -0.38357  -15.62751
       H   -12.20973   -1.39482  -18.72963
       O   -13.07641   -1.67385  -19.02012
      H1   -13.32003   -2.39934  -18.45162
       H   -14.11943    7.20078  -16.12940
       O   -13.88464    6.51972  -15.47781
      H1   -13.75815    7.01384  -14.66763
       H   -13.13435   -1.55779  -12.63155
       O   -13.90897   -2.04869  -12.35485
      H1   -14.38363   -2.14012  -13.20872
       H   -15.01331   -2.20555  -15.54470
       O   -14.44210   -2.58487  -14.84961
      H1   -13.60132   -2.81512  -15.29309
       H   -15.26932    4.99423  -16.00937
       O   -16.17007    5.24660  -16.30759
      H1   -16.51357    4.46295  -16.76777
       H   -16.85953    7.75458  -18.75062
       O   -16.77690    6.80609  -18.70644
      H1   -16.37054    6.63682  -17.85182
       H   -14.08051    0.77970  -15.46748
       O   -13.25111    0.89853  -15.91612
      H1   -12.70748    1.40306  -15.32624
       H   -16.34497    5.26280  -14.61310
       O   -16.25055    5.10152  -13.65308
      H1   -15.42891    5.56031  -13.44627
       H   -17.68254    1.80283  -15.84950
       O   -17.14056    1.17749  -16.36092
      H1   -16.74878    1.66869  -17.08677
       H   -16.80995   -0.18864  -18.61876
       O   -17.58370   -0.76370  -18.51460
      H1   -17.55971   -1.31493  -19.30708
       H   -17.87293    3.48689  -13.86617
       O   -18.41712    3.21067  -13.11889
      H1   -19.21218    2.84931  -13.55823
       H   -16.81008   -0.61575  -15.87333
       O   -16.81148   -1.57226  -15.63323
      H1   -17.25982   -1.94098  -16.40761

