60
frame 0 | Written by MDAnalysis XYZWriter (release 2.4.3)
       H     5.82528  -12.74062   15.21078
       O     5.17789  -12.06367   14.95917
      H1     4.62762  -11.93410   15.73537
       H     9.18670   -7.46249   15.72064
       O     9.66686   -7.69925   14.91478
      H1    10.32523   -7.04185   14.81313
       H    10.48940  -12.77553   12.04853
       O    10.94956  -13.05121   12.85899
      H1    10.42101  -12.70284   13.56899
       H     7.35191  -15.60242   17.45507
       O     7.29189  -16.56059   17.62624
      H1     7.67889  -16.70025   18.49186
       H     8.22408   -6.78894   17.72863
       O     7.94371   -6.84671   16.81294
      H1     7.60381   -7.75802   16.76925
       H    12.74943  -12.05410   18.25555
       O    12.65798  -12.18540   19.19552
      H1    13.53385  -12.50393   19.48392
       H     7.75502  -14.28508   14.17058
       O     7.34705  -13.43312   14.03134
      H1     7.70732  -13.16522   13.13181
       H     9.22089   -9.20050   13.10869
       O     9.26231   -9.31685   12.18716
      H1     8.85094   -8.51089   11.82528
       H     6.09335  -10.03416   12.91707
       O     6.94336  -10.28220   13.29980
      H1     7.54297   -9.71652   12.76159
       H     3.32856   -8.58791   17.07621
       O     3.63999   -7.88254   16.48239
      H1     4.49259   -8.21529   16.22101
       H     5.96696  -10.56457   18.64745
       O     5.35635  -10.95030   18.06606
      H1     4.93966  -11.62757   18.60201
       H    10.71951   -8.03549   19.00257
       O    11.61832   -8.03900   18.64356
      H1    11.57752   -8.70898   17.93071
       H     7.57727  -12.73456   16.76132
       O     7.02754  -13.33855   17.26190
      H1     6.34916  -12.75846   17.63844
       H    10.45622  -15.61345   16.78764
       O    10.86728  -14.73171   16.65229
      H1    11.34797  -14.54027   17.46815
       H     5.93309  -10.03693   16.36075
       O     6.13772   -9.23032   15.93773
      H1     6.35873   -9.51375   15.02873
       H     7.99871  -11.42590   12.16271
       O     8.23164  -12.24843   11.70526
      H1     7.36896  -12.59571   11.48348
       H    10.81801   -9.10287   15.84661
       O    11.12172   -9.65124   16.58988
      H1    10.33913  -10.18368   16.86298
       H     8.68218  -12.90776   14.94602
       O     9.51293  -12.66112   15.37552
      H1     9.87234  -13.46008   15.82158
       H     8.04849  -10.24707   16.64213
       O     8.69394  -10.75878   17.15845
      H1     9.22537  -11.26037   16.51489
       H    13.86487  -10.72169   16.62029
       O    13.30682  -11.43797   16.30000
      H1    12.42359  -11.03546   16.23728

