60
frame 1 | Written by MDAnalysis XYZWriter (release 2.4.3)
       H    17.72750   11.09550  -13.34281
       O    17.84649   11.61971  -12.54571
      H1    17.75585   10.98821  -11.82680
       H    18.49290    4.10291  -17.78350
       O    18.59384    4.24236  -18.73270
      H1    18.48487    5.21590  -18.90149
       H    14.64341    4.23381  -14.39115
       O    13.92647    4.39408  -13.78413
      H1    13.65864    5.29747  -14.03748
       H    19.46869    7.55115  -18.72943
       O    18.72246    7.11458  -19.21893
      H1    17.93419    7.44430  -18.78671
       H    16.26688    6.29948  -13.74866
       O    16.21453    6.17043  -14.71866
      H1    17.11989    5.90312  -14.95028
       H    18.24538    3.07075  -14.97948
       O    18.27441    3.06519  -15.92827
      H1    17.87173    2.21058  -16.15310
       H    14.81602    3.00807  -16.60068
       O    15.20041    2.82450  -15.73642
      H1    16.10371    3.08481  -15.94491
       H    15.03911   10.80168  -16.11575
       O    14.28688   10.32172  -15.72806
      H1    14.09879    9.65447  -16.39971
       H    12.26786    7.25315  -14.59477
       O    13.10307    6.83540  -14.53888
      H1    13.68610    7.50178  -14.11905
       H    17.77669   12.21451  -16.61959
       O    17.92730   13.15340  -16.46334
      H1    17.42025   13.34569  -15.66199
       H    15.11938    6.23635  -18.72679
       O    14.90263    7.03627  -19.21834
      H1    15.43491    7.74433  -18.80764
       H    15.99623    8.16590  -16.83403
       O    16.70994    7.78253  -17.33315
      H1    16.84230    6.95206  -16.86928
       H    16.35482    0.19009  -18.85961
       O    17.16661    0.72097  -18.88685
      H1    17.92705    0.06246  -18.90248
       H    14.67661    4.20687  -17.61779
       O    15.43049    4.78627  -17.86316
      H1    15.76281    4.29233  -18.62837
       H    18.12679   10.02231  -18.47071
       O    18.56122   10.54755  -17.80354
      H1    19.18601   11.00351  -18.36138
       H    15.06830   12.79822  -18.08632
       O    15.48862   11.95844  -17.86177
      H1    16.14086   11.94081  -18.57957
       H    16.41740    9.75217  -14.36455
       O    17.32728    9.83013  -14.57889
      H1    17.72748    9.02416  -14.23386
       H    13.56538    8.25337  -18.30578
       O    13.10800    8.28471  -17.46136
      H1    13.29871    7.44573  -17.07723
       H    19.04774    2.02347  -12.98451
       O    18.51870    2.80932  -13.17824
      H1    17.72655    2.64729  -12.63858
       H    18.95674    4.42937  -12.67180
       O    19.26449    5.18405  -12.19981
      H1    18.51949    5.77188  -12.21621

