60
frame 0 | Written by MDAnalysis XYZWriter (release 2.4.3)
       H   -12.16258  -11.58755   17.70413
       O   -11.37873  -11.47086   17.19179
      H1   -10.79517  -12.15513   17.54627
       H   -14.44704  -12.88477   19.09253
       O   -13.81719  -13.13735   18.41362
      H1   -13.21734  -13.71608   18.91647
       H   -16.34667  -13.95163   16.43728
       O   -15.93271  -14.28739   17.22756
      H1   -15.21068  -13.63096   17.40581
       H    -7.68811  -16.58284   15.75438
       O    -6.79611  -16.36391   16.03234
      H1    -6.60560  -15.58498   15.46617
       H    -8.10816  -14.18773   17.95540
       O    -7.57364  -14.99237   18.17177
      H1    -7.33110  -15.34251   17.30592
       H   -10.06426  -17.28852   15.30174
       O    -9.46331  -16.67332   14.84311
      H1    -9.61710  -15.85246   15.32279
       H   -11.20344  -14.68872   15.71466
       O   -10.71612  -14.60540   16.54986
      H1   -11.19916  -15.26110   17.07753
       H   -10.39117  -11.96441   15.73617
       O    -9.59953  -12.00800   15.18519
      H1    -9.14277  -11.17641   15.39582
       H    -7.68666  -10.52101   17.06448
       O    -7.20250  -11.05143   17.69897
      H1    -7.83594  -11.76096   17.93965
       H    -6.58412  -18.13733   18.30861
       O    -7.40485  -18.26161   18.81328
      H1    -7.20828  -19.14755   19.16402
       H   -12.71704  -15.77255   19.04109
       O   -11.80755  -15.65059   18.80272
      H1   -11.37113  -16.46832   19.10942
       H   -15.13444  -16.31307   19.20713
       O   -14.64648  -16.58576   18.43357
      H1   -14.82541  -15.88956   17.80215
       H   -12.29684  -18.32839   13.68716
       O   -12.17716  -19.28782   13.62000
      H1   -12.21092  -19.51839   14.55496
       H   -11.15097  -14.06475   13.46049
       O   -11.58081  -14.60506   14.11773
      H1   -11.46134  -15.51351   13.78566
       H    -7.02003  -13.22177   14.57409
       O    -7.62728  -13.90304   14.82695
      H1    -8.45551  -13.42031   14.97853
       H   -13.98789  -11.78747   17.02231
       O   -14.57204  -11.15922   16.57507
      H1   -14.71177  -10.41540   17.17259
       H   -13.18474  -17.72026   17.93364
       O   -12.93383  -18.58226   17.58887
      H1   -13.81273  -19.01328   17.47742
       H    -9.64459  -13.46823   17.66006
       O    -9.33035  -12.95629   18.39163
      H1    -9.39108  -13.51308   19.16504
       H   -12.82537  -17.69007   16.02942
       O   -12.57339  -17.05705   15.36575
      H1   -13.33615  -16.95399   14.72340
       H   -17.15993  -14.93474   18.23953
       O   -18.03679  -15.32747   18.47046
      H1   -18.13944  -16.09168   17.87677

