60
frame 0 | Written by MDAnalysis XYZWriter (release 2.4.3)
       H   -14.53614   11.12754   11.92341
       O   -14.27409   10.82871   11.07675
      H1   -13.56390   11.45000   10.79978
       H    -7.40376   12.03137    8.74594
       O    -7.77897   11.47600    9.44033
      H1    -8.12953   10.74407    8.92634
       H   -10.70480   12.31305   13.42456
       O   -10.21286   13.09077   13.12008
      H1   -10.07671   13.61762   13.93128
       H   -15.94145   13.47206   10.77778
       O   -15.40552   13.57141    9.98714
      H1   -14.73494   12.88628   10.08909
       H   -11.93943   13.44259   10.44606
       O   -12.54870   12.74214   10.20714
      H1   -12.24002   12.55904    9.30149
       H   -13.31247   12.54566    7.58387
       O   -12.31891   12.43564    7.61272
      H1   -12.13503   11.58430    7.15979
       H   -14.98546   15.70418    7.77501
       O   -14.36070   14.97657    7.76058
      H1   -14.43462   14.70471    8.68043
       H    -9.84664   17.10071    9.14643
       O   -10.20509   16.23580    8.90631
      H1   -10.49680   15.78459    9.73073
       H   -11.91935   10.00499   11.64270
       O   -11.18594    9.56705   11.20705
      H1   -10.51247   10.26517   11.17378
       H    -9.55223    9.21565    7.56613
       O    -9.04701    9.05466    8.36168
      H1    -9.01612    8.08516    8.36224
       H   -12.87614   16.18755    7.74005
       O   -12.57028   17.05033    7.41441
      H1   -11.68607   17.10389    7.78192
       H   -14.09366   14.20058    5.85110
       O   -13.94448   14.57553    4.95521
      H1   -13.89834   15.51420    5.23035
       H   -17.88011   12.69716    8.18359
       O   -17.45823   13.55211    7.98266
      H1   -16.49716   13.35922    8.06995
       H   -12.22647    9.10836    9.89265
       O   -13.06573    8.93732    9.46974
      H1   -13.67850    9.47493   10.01163
       H   -14.19495   13.03408   14.74181
       O   -13.52243   13.00584   14.04998
      H1   -13.85248   13.53215   13.32334
       H   -14.40871   16.16717   11.81226
       O   -13.92409   15.42264   11.45245
      H1   -14.60062   14.86493   11.04143
       H   -10.12880   13.80307    7.41950
       O    -9.27465   14.26906    7.29557
      H1    -9.30898   14.96807    7.93155
       H   -12.20597   15.05020   11.66105
       O   -11.27071   14.91869   11.48075
      H1   -11.03418   14.14977   12.02400
       H   -13.17970    9.50187    7.72775
       O   -12.77872    9.82738    6.89218
      H1   -13.50877    9.88899    6.25265
       H   -15.76960   11.46221    6.94152
       O   -15.19142   12.22766    6.82414
      H1   -15.26779   12.45616    5.88146

