60
frame 0 | Written by MDAnalysis XYZWriter (release 2.4.3)
       H   -16.43705   19.32146    4.31382
       O   -15.71923   18.72678    4.57993
      H1   -16.11090   17.87753    4.37273
       H   -18.18706   12.89004   -3.90230
       O   -18.79314   13.19975   -3.20630
      H1   -19.30938   13.90382   -3.57212
       H   -12.64907   16.58801   -2.35134
       O   -12.75819   16.77286   -1.41546
      H1   -12.90905   15.91258   -0.97328
       H   -16.24155   11.66669   -4.50266
       O   -17.18603   11.71788   -4.57356
      H1   -17.37337   11.90925   -5.51084
       H   -16.99066   15.36302    3.92369
       O   -17.37398   15.83473    4.64881
      H1   -17.96905   15.20541    5.09325
       H   -13.62682   18.85408    0.72196
       O   -14.33086   18.36514    0.27060
      H1   -13.89474   17.69531   -0.27695
       H   -14.55739   14.45161    3.19266
       O   -15.00040   14.18103    2.38146
      H1   -15.47476   13.39396    2.68342
       H   -13.72218   11.93832   -0.64955
       O   -14.34870   12.03181   -1.39622
      H1   -14.52293   12.98556   -1.40245
       H   -15.06475   14.51791   -0.53602
       O   -14.22854   14.73612   -0.10169
      H1   -14.32969   14.51501    0.81016
       H   -16.17071   11.31601    3.57669
       O   -16.27518   12.20041    3.91421
      H1   -17.22365   12.37616    3.80654
       H   -16.74982   18.06343   -2.67310
       O   -17.12309   18.51175   -3.44360
      H1   -16.37200   18.73911   -3.97114
       H   -17.03719   15.41993   -5.95501
       O   -16.29330   14.81602   -6.20216
      H1   -15.67534   14.86304   -5.44315
       H   -16.79639   13.92802   -1.59827
       O   -16.23989   14.67811   -1.86215
      H1   -16.54269   15.38136   -1.27768
       H   -18.24335   17.32120    3.94036
       O   -18.32718   18.12296    3.36036
      H1   -17.63938   17.98946    2.70931
       H   -18.13961   12.35907   -1.63309
       O   -17.62965   12.58513   -0.84497
      H1   -17.04703   11.80338   -0.76409
       H   -18.64155   17.16130   -5.94742
       O   -18.32600   16.55606   -5.27561
      H1   -17.78325   17.12095   -4.70266
       H   -15.31157   17.46079    1.46284
       O   -16.02837   16.96192    1.91093
      H1   -15.79814   16.04168    1.70678
       H   -15.26586   14.67432   -3.39322
       O   -14.62074   14.67770   -4.09866
      H1   -14.50383   13.73030   -4.36357
       H   -11.43787   18.13249   -0.53120
       O   -10.79095   18.36837    0.14569
      H1   -10.02007   18.60995   -0.33075
       H   -18.07027   16.87139   -0.41857
       O   -17.13290   16.92725   -0.63558
      H1   -16.69008   17.13490    0.20714

