60
frame 0 | Written by MDAnalysis XYZWriter (release 2.4.3)
       H     9.93488   -2.03467    2.66272
       O    10.07679   -2.54532    1.88625
      H1     9.54008   -2.05395    1.23465
       H    10.28429   -4.12164    4.84976
       O    10.06265   -4.86578    4.26066
      H1    10.32371   -4.44548    3.44904
       H    14.45857    1.52295    1.31366
       O    15.20502    1.34392    0.70506
      H1    15.32751    0.37693    0.71581
       H    15.38752   -3.14850    5.29087
       O    14.99284   -4.01925    5.49007
      H1    15.54266   -4.42937    6.18321
       H    12.48893   -5.26925    2.68469
       O    12.92430   -4.42454    2.77134
      H1    12.99480   -4.11019    1.84882
       H    16.82436   -2.04586    2.72869
       O    17.50136   -2.33914    3.32794
      H1    18.32456   -2.29677    2.81412
       H    14.71362   -1.16223    2.19875
       O    15.31595   -1.20414    1.42823
      H1    14.69882   -1.57384    0.80556
       H    15.93322   -4.85847    3.74958
       O    15.61327   -5.16569    2.91756
      H1    14.68620   -4.94736    2.86619
       H    11.57146   -3.64568    6.91422
       O    10.61189   -3.74120    6.94685
      H1    10.49296   -4.60136    7.39433
       H     9.20589   -0.08674    4.11361
       O     9.56863   -0.97059    4.12509
      H1    10.46853   -0.77353    4.39068
       H    13.24543   -2.91817    8.19864
       O    13.06795   -2.90579    7.26805
      H1    13.81043   -3.41876    6.91304
       H    16.44806   -1.73129    4.61432
       O    16.02397   -1.49774    5.44843
      H1    16.72957   -1.24486    6.07146
       H    13.46315    0.43046    5.34722
       O    14.30916    0.77618    5.04031
      H1    14.87676    0.00660    4.92292
       H    16.89609    2.18508    2.96021
       O    16.78684    1.22404    2.89721
      H1    16.17276    1.16105    2.19297
       H    11.03857   -0.53160   -1.37851
       O    11.39673   -1.01461   -0.63367
      H1    11.18272   -0.40858    0.10728
       H    13.35553   -2.61754    3.29668
       O    13.53488   -1.69264    3.48400
      H1    13.05680   -1.51980    4.30587
       H    11.55548   -0.03208    6.38831
       O    12.12387   -0.55069    5.84601
      H1    12.51548   -1.20299    6.44914
       H    14.22668    3.42996    2.66220
       O    13.78254    2.59598    2.90020
      H1    14.42272    2.15936    3.43084
       H    15.30355   -4.08155    0.47655
       O    14.35027   -4.09441    0.32018
      H1    14.23964   -3.30418   -0.20163
       H    13.11454   -1.62478   -1.05684
       O    14.04308   -1.62752   -0.83753
      H1    14.47953   -1.97337   -1.63304

