60
frame 0 | Written by MDAnalysis XYZWriter (release 2.4.3)
       H    -3.52891   -1.46767  -16.38909
       O    -4.27819   -1.79462  -15.89119
      H1    -4.62712   -2.56503  -16.36080
       H    -8.78853   -7.67910  -13.29988
       O    -8.21389   -7.12522  -13.79859
      H1    -7.50648   -6.96645  -13.14319
       H    -7.05164   -4.73114   -9.70211
       O    -6.44536   -4.46091  -10.40559
      H1    -6.09447   -3.64383   -9.99931
       H    -5.39459   -7.63430  -14.38355
       O    -4.74543   -7.77219  -13.68892
      H1    -3.95341   -7.99941  -14.22622
       H    -2.94843   -1.17733  -13.89734
       O    -2.18915   -0.59260  -13.94328
      H1    -1.74912   -0.68622  -13.08723
       H    -5.22890   -5.59885  -10.67817
       O    -4.60798   -6.30079  -10.50618
      H1    -3.97347   -6.20969  -11.23951
       H    -8.23459   -0.22662  -15.34397
       O    -7.67980   -0.37121  -14.60694
      H1    -8.03876   -1.17294  -14.18978
       H    -3.41600   -5.47034  -14.11872
       O    -3.67750   -4.58521  -14.29576
      H1    -4.22106   -4.69196  -15.07673
       H    -0.95962   -5.39452  -14.83404
       O    -0.77330   -6.23952  -14.43927
      H1    -1.20848   -6.18823  -13.58370
       H    -2.03539   -6.99772  -11.82221
       O    -2.23874   -6.14561  -12.24268
      H1    -1.91101   -5.51290  -11.59964
       H    -5.02775    0.13045  -13.93687
       O    -4.63772    0.66932  -13.26454
      H1    -3.78588    0.24220  -13.08630
       H    -4.49053   -3.59830  -13.17693
       O    -4.71712   -2.79775  -12.64064
      H1    -5.55298   -2.50706  -12.95798
       H    -6.42745   -0.16458  -10.84869
       O    -6.23093   -0.75075  -11.56318
      H1    -5.65467   -0.28927  -12.21086
       H    -0.70064   -3.16597  -15.51324
       O    -1.33573   -3.81856  -15.82148
      H1    -2.03313   -3.80184  -15.13053
       H    -7.72538   -4.25777  -14.80686
       O    -7.66321   -4.52558  -15.72986
      H1    -6.73417   -4.48572  -15.97248
       H    -4.69114   -2.68671  -10.68927
       O    -4.24980   -2.67221   -9.82213
      H1    -4.32112   -1.71203   -9.61977
       H    -1.35082   -3.89302  -10.22494
       O    -1.85080   -3.81614  -11.03395
      H1    -2.69807   -3.44492  -10.76273
       H    -7.48583   -3.91220  -11.98445
       O    -8.04687   -3.46810  -12.68595
      H1    -8.81801   -4.04016  -12.81544
       H    -0.39498   -3.39158  -12.11520
       O     0.44978   -3.28459  -12.57100
      H1     0.75742   -4.18525  -12.80467
       H    -5.22353   -4.58794  -17.63920
       O    -5.17155   -4.87408  -16.72021
      H1    -4.67127   -5.70887  -16.74138

