60
frame 0 | Written by MDAnalysis XYZWriter (release 2.4.3)
       H    12.39552    3.31065    4.20693
       O    11.73193    3.83113    4.70898
      H1    12.18923    4.65685    4.92891
       H     9.01227    2.70777    8.73382
       O     9.55501    3.04993    7.99515
      H1    10.19281    2.33873    7.99980
       H    14.45857    1.52295    1.31366
       O    15.20502    1.34392    0.70506
      H1    15.32751    0.37693    0.71581
       H    15.19618    2.86866    6.73871
       O    15.88424    3.46879    6.41051
      H1    16.31651    3.75354    7.22407
       H    15.38752   -3.14850    5.29087
       O    14.99284   -4.01925    5.49007
      H1    15.54266   -4.42937    6.18321
       H    14.71362   -1.16223    2.19875
       O    15.31595   -1.20414    1.42823
      H1    14.69882   -1.57384    0.80556
       H    11.36028    0.34365    8.82390
       O    11.37842    0.94118    8.06294
      H1    12.29111    1.24013    8.00666
       H     9.20589   -0.08674    4.11361
       O     9.56863   -0.97059    4.12509
      H1    10.46853   -0.77353    4.39068
       H    18.42167    1.58324    5.30164
       O    18.30379    2.49515    5.57347
      H1    17.41762    2.50955    5.96788
       H    13.24543   -2.91817    8.19864
       O    13.06795   -2.90579    7.26805
      H1    13.81043   -3.41876    6.91304
       H    16.44806   -1.73129    4.61432
       O    16.02397   -1.49774    5.44843
      H1    16.72957   -1.24486    6.07146
       H    14.27551    1.20645    7.42281
       O    13.96430    2.03157    7.77945
      H1    14.22784    2.00039    8.70924
       H    12.64080    3.48136    8.65681
       O    12.02663    4.18021    8.41778
      H1    11.17420    3.75347    8.52716
       H    13.46315    0.43046    5.34722
       O    14.30916    0.77618    5.04031
      H1    14.87676    0.00660    4.92292
       H    16.89609    2.18508    2.96021
       O    16.78684    1.22404    2.89721
      H1    16.17276    1.16105    2.19297
       H     9.49778    2.27544    6.24786
       O     9.87204    2.26758    5.35229
      H1    10.62464    2.88157    5.41980
       H    13.35553   -2.61754    3.29668
       O    13.53488   -1.69264    3.48400
      H1    13.05680   -1.51980    4.30587
       H    11.55548   -0.03208    6.38831
       O    12.12387   -0.55069    5.84601
      H1    12.51548   -1.20299    6.44914
       H    14.22668    3.42996    2.66220
       O    13.78254    2.59598    2.90020
      H1    14.42272    2.15936    3.43084
       H     8.87537    3.03571    2.40031
       O     9.20919    2.19417    2.71244
      H1     9.59951    2.31565    3.58943

