60
frame 0 | Written by MDAnalysis XYZWriter (release 2.4.3)
       H    16.92200   17.29382   16.15051
       O    16.25180   16.82840   15.63168
      H1    15.95740   16.09071   16.18438
       H    17.37053   17.68183   18.46450
       O    17.54614   18.18522   17.64129
      H1    18.28192   17.69948   17.29521
       H    17.37269    9.23699   13.61494
       O    17.70830    8.39097   13.90249
      H1    17.10308    7.77558   13.49585
       H    18.34384   14.17540   18.05500
       O    18.32192   13.61812   17.24586
      H1    17.95201   14.21647   16.58872
       H    16.59315   16.99126   13.67343
       O    16.41398   17.03081   12.71669
      H1    16.40016   16.10021   12.44143
       H    13.43388   18.10148   17.01253
       O    13.15432   17.17786   17.10458
      H1    12.72734   16.97116   16.26616
       H    12.07835   10.29660   18.65249
       O    12.92805   10.20468   18.19662
      H1    13.40805   11.02561   18.39021
       H    14.54816   14.39809   12.86532
       O    14.08191   14.82482   13.57273
      H1    13.27722   14.25454   13.64949
       H    16.46841    9.70029   18.33289
       O    16.05773    9.70671   19.22126
      H1    15.28043   10.25806   19.16259
       H    14.90019   14.01619   15.11806
       O    15.38086   14.12541   15.95960
      H1    14.77446   13.92514   16.69561
       H    16.00885   12.69820   15.89296
       O    16.40244   11.81652   15.89971
      H1    17.29111   12.03511   16.24882
       H    15.54742   19.25775   17.29504
       O    15.01844   19.21243   16.48064
      H1    15.39145   18.42857   16.06296
       H    13.51212   15.91727   18.15724
       O    13.92462   15.24828   18.74502
      H1    13.21977   14.59737   18.90722
       H    17.95410   14.64096   13.79545
       O    17.94098   14.88145   14.75129
      H1    17.04962   15.26860   14.86285
       H    18.59325   11.88609   13.86534
       O    19.24608   12.31754   14.42500
      H1    19.00538   13.23769   14.48183
       H    18.49593    7.85417   17.23421
       O    18.04262    8.64333   16.88499
      H1    17.53938    8.25531   16.14037
       H    17.39536   11.24838   12.49719
       O    17.26868   10.96356   13.41511
      H1    16.54576   11.53479   13.74730
       H    15.14481   11.58865   14.59987
       O    14.92402   11.88476   13.71454
      H1    14.77063   11.01745   13.26004
       H    12.12368   13.00829   17.90665
       O    12.19349   12.80130   16.97155
      H1    11.43793   12.17637   16.87548
       H    17.75287   14.43054   11.32350
       O    17.17681   14.40976   12.10382
      H1    16.31246   14.19977   11.72819

