60
frame 1 | Written by MDAnalysis XYZWriter (release 2.4.3)
       H    17.15066  -11.73410   -5.99598
       O    16.58060  -11.30506   -6.61158
      H1    16.78485  -10.35321   -6.55350
       H    16.84881  -11.93850   -0.12938
       O    17.45202  -11.22753    0.00011
      H1    18.28279  -11.60873    0.28903
       H    15.20175   -6.18561    1.93202
       O    14.29586   -6.07979    1.94796
      H1    13.90345   -6.38219    1.14820
       H    16.64510   -9.72724    0.46601
       O    16.54176   -8.74795    0.59837
      H1    16.01105   -8.65152    1.42942
       H    13.85960   -6.04001   -4.11736
       O    13.78057   -6.29746   -3.21682
      H1    14.55450   -6.66840   -2.78046
       H    12.96906   -4.69844   -2.31300
       O    12.58262   -3.81616   -2.08983
      H1    11.72646   -3.74913   -2.56790
       H    18.33153   -4.18845   -1.00059
       O    17.79665   -4.14420   -1.78474
      H1    17.32753   -3.30136   -1.68325
       H    18.72329   -4.79761   -2.90944
       O    19.35060   -5.01558   -3.63668
      H1    19.83643   -4.19251   -3.79595
       H    12.99385   -9.48552   -0.83433
       O    13.45099   -9.01884   -1.57569
      H1    14.41253   -9.17075   -1.39578
       H    13.06493  -10.36416   -5.27665
       O    13.69658  -10.08807   -4.57568
      H1    13.21817   -9.60593   -3.87189
       H    14.46809   -8.96969   -5.61153
       O    14.86458   -8.42395   -6.34419
      H1    14.50673   -7.49228   -6.23413
       H    17.77398   -6.52314   -6.91973
       O    18.11979   -5.69281   -7.29019
      H1    19.00857   -5.63488   -6.89368
       H    18.27327   -8.49235    1.53191
       O    19.10687   -8.23926    2.01551
      H1    19.67471   -7.99186    1.31414
       H    16.76969   -2.93119   -4.42910
       O    17.52132   -2.42544   -4.22925
      H1    17.11965   -1.70249   -3.70241
       H    12.46644   -5.40643   -0.59499
       O    12.71430   -6.30555   -0.40229
      H1    12.86598   -6.79084   -1.27419
       H    19.25581   -8.78578   -3.47070
       O    18.77429   -8.16027   -4.00105
      H1    19.52309   -7.49266   -4.14808
       H    18.90112  -13.06745   -4.84556
       O    18.23722  -12.38999   -4.54630
      H1    17.49189  -12.97305   -4.24102
       H    16.50841   -8.32101   -6.44902
       O    17.48098   -8.12265   -6.60134
      H1    17.94183   -8.21440   -5.76815
       H    17.00307   -7.79792   -2.40190
       O    16.11892   -7.81141   -2.00428
      H1    16.40407   -7.86387   -1.06298
       H    18.62380  -11.24725   -3.49920
       O    18.96588  -10.65104   -2.76776
      H1    18.48181  -10.92285   -1.92287

