60
frame 0 | Written by MDAnalysis XYZWriter (release 2.4.3)
       H    12.32984    4.15225   -6.84247
       O    12.39432    4.86259   -7.48258
      H1    12.25350    5.66231   -6.91544
       H    15.07485    3.77793   -9.47430
       O    15.45258    4.46348  -10.00452
      H1    16.32135    4.51390   -9.63751
       H    16.46556    6.36140   -7.65634
       O    17.35052    6.59889   -7.83456
      H1    17.79447    6.09996   -7.19703
       H    14.88516    4.94566  -12.65664
       O    14.06872    5.41566  -12.77325
      H1    14.38331    6.31242  -12.95979
       H    17.15760    4.20297  -13.16852
       O    16.92806    5.08249  -12.85320
      H1    17.39145    5.21972  -12.03591
       H    15.06055    5.88960   -8.87925
       O    14.65504    6.27743   -8.08689
      H1    13.97829    5.63897   -7.84236
       H    15.34787    4.68681   -6.15004
       O    15.02989    4.97113   -5.26809
      H1    15.63514    4.57288   -4.67019
       H    12.90030    5.58463  -11.28997
       O    12.07409    5.52921  -10.80673
      H1    11.98043    6.44001  -10.50577
       H    15.36339    9.56599   -8.38063
       O    16.04313   10.09522   -8.82491
      H1    16.83596    9.98250   -8.28288
       H    11.58686    6.83962   -5.61152
       O    12.45578    7.16587   -5.45420
      H1    12.64596    6.94011   -4.53385
       H    13.31201    8.82270  -13.00499
       O    13.95329    8.15674  -12.75286
      H1    14.53043    8.54043  -12.04792
       H    18.91997    6.38017  -10.73552
       O    17.97991    6.56368  -10.49977
      H1    17.93470    6.59641   -9.52924
       H    13.87392    8.94213   -6.85661
       O    13.77242    8.80572   -7.83022
      H1    14.00666    7.86669   -7.90805
       H    16.20704    7.81803   -4.02339
       O    16.23385    7.35255   -4.89247
      H1    15.53787    6.68100   -4.82803
       H    18.14259    8.40260   -7.88679
       O    18.47413    9.31994   -7.85916
      H1    19.42124    9.18933   -7.79725
       H    16.48380    7.77805  -11.16215
       O    16.10454    8.66378  -11.34042
      H1    15.94814    9.03139  -10.44062
       H    12.36331    3.53819   -9.81663
       O    12.17268    2.62152   -9.58103
      H1    11.86126    2.68988   -8.68341
       H    10.67459    8.01091   -8.76116
       O    11.40656    8.44678   -9.22480
      H1    12.14603    8.21763   -8.68068
       H    16.56840    2.74799   -7.30709
       O    15.69954    3.18481   -7.44658
      H1    15.09575    2.47145   -7.25391
       H    13.29364    4.29368   -5.25002
       O    12.65934    3.62142   -4.95644
      H1    13.14239    2.79267   -5.07764

