60
frame 0 | Written by MDAnalysis XYZWriter (release 2.4.3)
       H    -5.21501    9.62571   18.64014
       O    -5.47682   10.58145   18.64741
      H1    -6.42786   10.51847   18.46693
       H     2.96921   13.35455   14.77038
       O     3.10528   12.41902   14.61956
      H1     2.79780   12.10189   15.48159
       H    -2.93098   11.71220   18.16145
       O    -3.25363   12.31624   17.48734
      H1    -4.19982   12.07721   17.45963
       H     1.62967   15.17756   14.72960
       O     2.13229   14.98410   15.53402
      H1     1.41883   14.94236   16.18916
       H    -3.57338    8.08471   19.03263
       O    -4.32959    8.02545   18.41086
      H1    -4.02195    7.35029   17.78133
       H    -2.87847    5.52782   16.66996
       O    -3.42281    6.27675   16.32185
      H1    -2.77694    6.91755   15.97388
       H    -2.58009   13.67502   16.22893
       O    -2.00673   14.43533   16.03585
      H1    -2.35000   14.81323   15.22108
       H    -1.70648    8.66812   14.70994
       O    -1.79229    8.21180   15.53484
      H1    -1.00587    8.54388   16.03483
       H     1.55877   15.13078   18.71902
       O     0.86438   14.95679   18.06054
      H1     0.98565   14.04955   17.85386
       H     1.12780    8.84660   15.27502
       O     0.70263    9.51081   15.82415
      H1     1.42498    9.96230   16.25201
       H    -0.67145   12.02788   18.02424
       O    -1.01857   11.32569   18.62267
      H1    -0.57837   10.52619   18.28341
       H    -0.65317   13.54974   16.54229
       O     0.03988   12.91024   16.60972
      H1     0.07011   12.47058   15.76444
       H     0.93207   11.79118   13.72980
       O     0.02801   11.58986   13.98862
      H1     0.16309   10.87286   14.61754
       H     2.34437   11.54300   17.69953
       O     2.58285   11.14634   16.83090
      H1     3.55441   11.13441   16.89541
       H    -1.46014    4.72961   15.73795
       O    -1.05314    5.23097   14.98053
      H1    -0.85396    6.09311   15.39348
       H     5.08926    7.44044   17.64908
       O     4.46342    8.14434   17.82375
      H1     4.96066    8.57762   18.51589
       H    -3.33410   14.40489   19.35877
       O    -2.85228   15.00544   18.77383
      H1    -2.76158   14.53886   17.92489
       H    -0.05901    7.39554   18.31597
       O    -0.21234    8.25675   18.72283
      H1    -0.64354    8.05291   19.53798
       H     1.24296    5.62894   17.59133
       O     0.29824    5.56773   17.82675
      H1     0.25246    4.77648   18.41543
       H    -3.10630   11.27714   14.36007
       O    -3.18512   12.22117   14.15992
      H1    -2.36929   12.58015   14.51574

