60
frame 0 | Written by MDAnalysis XYZWriter (release 2.4.3)
       H     8.53552    5.96490  -15.47809
       O     8.95597    6.06222  -16.35772
      H1     9.80346    6.52635  -16.18179
       H     7.48390    2.09304   -9.64703
       O     7.63041    3.01240   -9.88038
      H1     8.54325    3.01223  -10.18239
       H     9.47248    4.78656  -11.72665
       O     9.96251    4.03391  -11.43610
      H1    10.79824    4.38838  -11.09451
       H     8.53094    7.04061   -9.19087
       O     9.37363    6.67841   -9.31073
      H1     9.37641    6.09586   -8.51649
       H     5.17033    5.69874  -10.40908
       O     5.33481    5.86176   -9.45973
      H1     5.72153    5.04001   -9.13527
       H     9.24525    9.22381  -13.59466
       O    10.05153    9.71423  -13.74310
      H1    10.39970   10.00525  -12.89690
       H     8.41077    9.80145   -7.86782
       O     8.34062    9.57478   -6.94413
      H1     7.49683    9.14058   -6.86086
       H    12.90030    5.58463  -11.28997
       O    12.07409    5.52921  -10.80673
      H1    11.98043    6.44001  -10.50577
       H    10.35134    4.39435  -13.19575
       O    10.77452    4.92471  -13.89690
      H1    11.49471    4.32571  -14.16572
       H     9.58686   10.89342   -9.97004
       O     8.70980   11.12176   -9.61894
      H1     8.14209   10.91738  -10.35792
       H     7.07300    4.18042  -14.72603
       O     6.90998    5.09724  -14.54954
      H1     6.21589    5.34966  -15.16858
       H    11.10690    6.71319  -14.53578
       O    10.98376    7.53739  -15.05229
      H1    10.54163    8.19795  -14.48307
       H     7.21121    4.18746   -7.01279
       O     6.57502    4.24482   -7.74761
      H1     7.09132    3.75464   -8.39303
       H     8.69235    6.54355  -11.05619
       O     8.09950    6.55237  -11.81964
      H1     7.39220    5.91052  -11.56963
       H     6.64074    9.24033  -10.82802
       O     6.83469   10.07432  -11.32364
      H1     7.16261    9.69978  -12.16215
       H     6.26763    8.69425   -9.11435
       O     6.93997    8.07952   -9.44102
      H1     6.46613    7.26185   -9.64202
       H    11.88797   10.90348  -11.00436
       O    11.10409   10.34303  -11.02812
      H1    11.39408    9.57387  -10.49848
       H    10.67459    8.01091   -8.76116
       O    11.40656    8.44678   -9.22480
      H1    12.14603    8.21763   -8.68068
       H     4.91739    6.28689  -12.44371
       O     5.58597    5.62438  -12.18946
      H1     5.92339    5.39244  -13.05597
       H     7.04459    8.61062  -14.35257
       O     7.64745    8.58919  -13.60477
      H1     7.52602    7.75009  -13.15794

