60
frame 1 | Written by MDAnalysis XYZWriter (release 2.4.3)
       H   -17.74544   16.77917  -14.65885
       O   -17.96510   16.47632  -15.56863
      H1   -17.76925   15.55247  -15.52332
       H   -14.37993   14.80978  -15.46945
       O   -14.66546   15.71461  -15.25376
      H1   -14.89251   15.62092  -14.34386
       H   -11.42097    9.19160  -16.02291
       O   -11.28081    9.65261  -15.20376
      H1   -11.45245    8.98821  -14.51379
       H   -13.74501   12.97995  -16.84620
       O   -13.27131   13.48486  -16.16053
      H1   -12.57589   13.97975  -16.63860
       H   -11.44063   15.82020  -15.13403
       O   -10.94946   14.99781  -15.07502
      H1   -10.08008   15.17018  -15.47372
       H   -10.82598   12.33528  -17.14029
       O    -9.94990   12.54096  -17.47520
      H1    -9.47374   11.71384  -17.32950
       H   -14.27088   13.16902  -13.11967
       O   -15.08039   13.70684  -13.15351
      H1   -15.74757   13.05585  -12.90556
       H   -14.04724    8.78463  -14.66124
       O   -14.30330    7.83514  -14.79473
      H1   -14.92327    7.65383  -14.07163
       H   -16.40862   17.24530  -17.48397
       O   -15.88147   16.45066  -17.69396
      H1   -15.53000   16.20007  -16.86739
       H   -17.95926   14.24103  -18.98384
       O   -18.91727   14.17546  -19.07892
      H1   -19.25338   13.95981  -18.17057
       H   -12.94468   10.73184  -17.52432
       O   -12.63193   11.25454  -18.27998
      H1   -13.43802   11.53670  -18.73527
       H   -13.60712   11.31606  -14.60100
       O   -14.13582   10.77836  -15.16610
      H1   -14.61758   11.42824  -15.70063
       H    -8.85940   13.80412  -16.46461
       O    -8.49002   14.67109  -16.25975
      H1    -7.88191   14.49314  -15.51882
       H   -12.39936   16.84089  -18.59500
       O   -11.93162   16.01456  -18.34794
      H1   -11.05566   16.02492  -18.78917
       H   -18.31802   13.19469  -15.85183
       O   -17.39656   13.49376  -15.79888
      H1   -17.03837   12.96386  -15.08841
       H   -15.88247   12.02462  -18.08397
       O   -15.33952   12.27065  -17.31630
      H1   -15.97492   12.70635  -16.74582
       H   -11.61163   12.31048  -13.33583
       O   -12.54191   12.39999  -13.61758
      H1   -12.46732   12.79501  -14.48719
       H   -12.27990   18.12305  -15.16013
       O   -12.46807   17.24295  -14.79037
      H1   -13.17336   16.89847  -15.33727
       H   -15.93198   10.32328  -14.63608
       O   -16.89254   10.33004  -14.75880
      H1   -17.04677    9.82864  -15.57029
       H   -11.01273   16.16484  -12.31173
       O   -11.46305   15.28151  -12.31058
      H1   -11.24852   15.05072  -13.23083

