60
frame 0 | Written by MDAnalysis XYZWriter (release 2.4.3)
       H     1.39898   -2.34702  -16.02329
       O     0.88290   -2.04692  -15.27375
      H1     0.94973   -2.70390  -14.55465
       H     3.66094   -0.80779  -16.40448
       O     3.64223   -0.61535  -15.47557
      H1     2.79678   -0.15157  -15.37184
       H     3.54555    3.25735  -14.79692
       O     2.80899    3.88529  -14.88711
      H1     2.50824    4.01403  -13.99580
       H     1.62808   -1.78009  -18.19507
       O     1.06923   -1.02268  -18.34965
      H1     0.53398   -0.94011  -17.54956
       H     2.18363    0.36428  -18.36046
       O     2.57140    1.23735  -18.37501
      H1     3.49568    1.05914  -18.33019
       H     1.85088    2.24920  -17.24133
       O     1.16267    2.74211  -16.74319
      H1     1.61960    3.34410  -16.16453
       H     0.80648   -0.28254  -14.84288
       O     1.41288    0.40967  -14.58878
      H1     0.99054    1.14719  -15.02181
       H     5.27950   -0.45725  -12.50814
       O     4.65890    0.28270  -12.70311
      H1     4.43332    0.03067  -13.62303
       H     3.85503   -3.83705  -13.77883
       O     4.16375   -4.58290  -14.30388
      H1     4.42242   -4.17702  -15.16246
       H     2.81776   -0.05263  -11.86408
       O     1.91875    0.28289  -11.93341
      H1     1.92274    0.66013  -12.80289
       H     3.32294   -3.06239  -16.92548
       O     2.45897   -3.21914  -17.31064
      H1     2.38488   -4.18810  -17.30714
       H    -0.70064   -3.16597  -15.51324
       O    -1.33573   -3.81856  -15.82148
      H1    -2.03313   -3.80184  -15.13053
       H     5.36534   -0.84705  -18.39286
       O     4.41262   -0.87909  -18.38401
      H1     4.12035   -1.77806  -18.60080
       H     0.16432   -0.55657  -11.55579
       O    -0.76432   -0.61340  -11.78341
      H1    -1.19709    0.15643  -11.39844
       H     6.09420    1.24974  -12.54574
       O     6.96080    1.66308  -12.62179
      H1     6.96586    2.31645  -11.92008
       H     5.97636   -2.90782  -16.32586
       O     5.07239   -3.17956  -16.50743
      H1     5.24747   -3.96477  -17.03688
       H     2.82273   -2.42135  -12.38430
       O     3.37213   -2.36603  -13.16192
      H1     2.87255   -1.75141  -13.74102
       H    -1.55648   -0.74751  -15.65494
       O    -1.32650   -0.55294  -16.57286
      H1    -1.75638    0.32003  -16.69191
       H     4.04344    2.22380  -12.46142
       O     3.77652    3.13396  -12.33491
      H1     4.59802    3.61592  -12.26019
       H     5.07413    1.99939  -16.43761
       O     4.44832    1.82593  -15.74460
      H1     4.52616    0.84214  -15.64900

