60
frame 0 | Written by MDAnalysis XYZWriter (release 2.4.3)
       H    -3.15980   18.55548    2.75183
       O    -2.87559   17.64645    2.83399
      H1    -3.67967   17.22293    3.13000
       H    -3.88993   17.86291    7.94892
       O    -4.45245   17.49761    8.65082
      H1    -4.76222   18.31488    9.06086
       H     3.32505   14.90796    8.70746
       O     2.98610   15.81448    8.60478
      H1     2.02217   15.69186    8.62116
       H     4.44050   17.20741    7.78059
       O     5.18315   17.71922    8.14551
      H1     4.79885   18.23303    8.87485
       H     2.29148   13.32702    5.45667
       O     1.81446   12.50973    5.52250
      H1     2.03166   12.16430    6.40984
       H     5.75328   18.30541    6.52917
       O     6.13942   18.71834    5.76161
      H1     6.56216   19.52724    6.12220
       H     0.87221   18.61188    6.30584
       O     1.71593   19.04211    6.23408
      H1     2.06464   18.95991    7.14255
       H     3.31635   15.38312    6.98537
       O     3.62464   15.14854    6.11216
      H1     3.41020   15.92791    5.60541
       H    -2.55223   18.08161    9.23363
       O    -1.89522   18.71535    9.60048
      H1    -1.35660   18.84934    8.82442
       H     3.49534   17.63232   11.57617
       O     3.02959   17.75822   10.74541
      H1     3.21361   16.93904   10.24920
       H    -0.47625   15.93711    9.36774
       O     0.02518   15.41025    8.69728
      H1    -0.66914   14.79770    8.36066
       H    -0.71739   19.34122    4.05077
       O    -0.73833   18.43320    4.39687
      H1    -1.57190   18.06815    4.07416
       H    -3.54449   19.04004    6.03953
       O    -3.46707   18.08368    6.12908
      H1    -3.72511   17.75957    5.24956
       H    -2.63972   14.21928    7.36015
       O    -1.74070   13.92642    7.21059
      H1    -1.36060   14.55625    6.58154
       H    -0.63492   17.68785   11.17771
       O    -0.34482   16.81216   11.37198
      H1     0.56340   16.90878   11.69736
       H     5.46346   19.24006    3.87286
       O     4.62327   19.11613    3.34717
      H1     4.12993   18.47237    3.84160
       H    -1.26245   14.83501    4.63752
       O    -0.43987   15.08048    5.06576
      H1     0.05234   15.37800    4.27505
       H     0.75058   16.63013    2.27370
       O     0.94144   16.59792    3.21465
      H1     0.33251   17.20853    3.64036
       H     2.76578   18.01070    5.23660
       O     3.06519   17.43128    4.51612
      H1     2.31792   17.35376    3.92889
       H    -0.59541   16.89518    7.37437
       O    -0.67447   17.80543    7.13046
      H1    -0.90924   17.77422    6.17774

