60
frame 0 | Written by MDAnalysis XYZWriter (release 2.4.3)
       H   -14.44704  -12.88477   19.09253
       O   -13.81719  -13.13735   18.41362
      H1   -13.21734  -13.71608   18.91647
       H   -16.44260  -11.48602   16.07029
       O   -16.89548  -12.19539   15.59443
      H1   -17.06873  -11.78723   14.73020
       H   -16.34667  -13.95163   16.43728
       O   -15.93271  -14.28739   17.22756
      H1   -15.21068  -13.63096   17.40581
       H   -16.60940  -15.69440   12.49026
       O   -16.23415  -15.16854   13.22682
      H1   -15.55686  -14.63098   12.85720
       H   -18.56032  -12.98503   11.46440
       O   -18.75500  -12.69506   10.56566
      H1   -18.92751  -11.74833   10.68916
       H   -15.63163  -17.96823   14.33935
       O   -14.95189  -17.60939   13.71788
      H1   -15.36875  -16.83485   13.35860
       H   -13.30112  -14.47428   12.81125
       O   -14.06598  -14.26463   12.21772
      H1   -13.93837  -14.92040   11.50467
       H   -17.91830   -6.78813   17.96165
       O   -17.12216   -6.88695   17.39148
      H1   -16.64239   -7.56974   17.87755
       H   -18.02204  -12.97928   16.64722
       O   -18.79505  -13.15533   17.22433
      H1   -18.50170  -14.00246   17.65310
       H   -14.67082   -8.42024   18.06500
       O   -15.41701   -9.02219   18.02199
      H1   -15.51554   -9.36875   18.93305
       H   -17.49655  -14.02768   13.31013
       O   -18.34535  -13.59621   13.07702
      H1   -18.99272  -14.26788   13.33095
       H   -17.06176  -10.37990   12.58905
       O   -17.35847  -10.40035   13.50352
      H1   -16.97484   -9.62740   13.93969
       H   -16.30556   -7.26533   14.21540
       O   -15.93376   -8.02163   13.77433
      H1   -15.12098   -8.14057   14.24477
       H   -15.13444  -16.31307   19.20713
       O   -14.64648  -16.58576   18.43357
      H1   -14.82541  -15.88956   17.80215
       H   -13.98789  -11.78747   17.02231
       O   -14.57204  -11.15922   16.57507
      H1   -14.71177  -10.41540   17.17259
       H   -18.05414   -8.87679   16.28822
       O   -18.93353   -8.88901   15.89898
      H1   -19.07936   -9.81328   15.66745
       H   -19.37707  -17.86209   16.97454
       O   -18.43322  -17.82079   17.13147
      H1   -18.28951  -18.42875   17.86787
       H   -13.69523  -11.23057   14.81672
       O   -13.10339  -11.11868   14.09272
      H1   -13.67385  -10.89332   13.36533
       H   -17.53761  -19.09614   14.53559
       O   -16.83777  -19.14161   15.21203
      H1   -17.10656  -18.54936   15.92453
       H   -17.15993  -14.93474   18.23953
       O   -18.03679  -15.32747   18.47046
      H1   -18.13944  -16.09168   17.87677

