60
frame 0 | Written by MDAnalysis XYZWriter (release 2.4.3)
       H    11.28222   10.32174   -3.24551
       O    12.09499   10.10045   -2.79028
      H1    12.70637    9.98054   -3.51201
       H    17.33169   16.05501   -2.54335
       O    16.96246   15.20136   -2.72365
      H1    16.68739   14.90569   -1.86985
       H    14.22518   11.79723   -8.53052
       O    13.30827   11.60804   -8.41580
      H1    13.25114   10.64516   -8.31165
       H    16.51332    8.92156   -5.52404
       O    16.95422    9.79559   -5.60230
      H1    17.55285    9.65061   -6.35928
       H    17.55470   10.41466   -3.84949
       O    17.87412   10.83389   -3.03409
      H1    18.38492   11.63522   -3.26565
       H    12.56827   13.42704   -4.67677
       O    12.14277   13.94596   -3.97818
      H1    12.76517   14.62728   -3.81636
       H    15.36339    9.56599   -8.38063
       O    16.04313   10.09522   -8.82491
      H1    16.83596    9.98250   -8.28288
       H    16.01977   10.95072   -2.33338
       O    15.18668   11.25360   -1.94540
      H1    15.44744   11.70723   -1.14979
       H    16.09119   12.29748   -8.71913
       O    15.48681   12.90079   -9.20895
      H1    15.58144   13.74909   -8.80578
       H    15.60861    9.02238   -2.10863
       O    15.77051    8.13817   -2.47243
      H1    16.12024    7.62216   -1.72354
       H    11.77758   11.34672   -6.27601
       O    12.39756   11.95161   -5.85182
      H1    13.01471   12.12335   -6.59097
       H    11.18395   13.63911   -2.20004
       O    10.93689   12.83995   -1.67115
      H1    11.59098   12.19388   -1.96296
       H    16.08867   13.52889   -5.94129
       O    16.19514   14.31912   -6.49540
      H1    16.96960   14.11278   -7.04159
       H    13.85671   16.50130   -4.43937
       O    12.97159   16.66113   -4.10931
      H1    12.39943   16.32779   -4.82652
       H    13.87392    8.94213   -6.85661
       O    13.77242    8.80572   -7.83022
      H1    14.00666    7.86669   -7.90805
       H    15.34531   11.09683   -4.76671
       O    15.13149   12.02985   -4.90565
      H1    15.01420   12.38028   -3.98629
       H    15.63116   15.48152   -5.39703
       O    15.48488   16.16038   -4.72558
      H1    16.09396   15.85940   -4.02624
       H    16.20704    7.81803   -4.02339
       O    16.23385    7.35255   -4.89247
      H1    15.53787    6.68100   -4.82803
       H    13.60977   10.44044   -5.41173
       O    13.87076    9.54885   -5.17970
      H1    13.07871    9.03726   -5.37617
       H    10.49538   12.41892   -5.69148
       O     9.83853   13.13910   -5.68645
      H1     9.39725   13.08193   -6.53214

