60
frame 0 | Written by MDAnalysis XYZWriter (release 2.4.3)
       H     5.58110   11.40431  -11.81458
       O     4.88195   12.03274  -11.98186
      H1     4.38945   11.53743  -12.63691
       H     7.96564   17.85119  -10.08045
       O     7.50949   17.11898  -10.48601
      H1     8.03949   16.88904  -11.25970
       H     2.74842   17.86725   -8.62698
       O     3.69756   17.90179   -8.70968
      H1     3.89177   18.77925   -8.35839
       H     4.24070   15.31674   -8.46447
       O     4.02370   14.52442   -7.95009
      H1     4.59929   13.88450   -8.32643
       H     1.02808   16.23302   -9.26817
       O     1.12582   16.98876   -8.67958
      H1     0.46411   17.66406   -8.94971
       H     3.20178   14.31356  -13.38631
       O     3.10255   13.89815  -14.24245
      H1     4.03840   13.81177  -14.46107
       H     0.24650   13.36094  -10.71527
       O     0.22302   12.42995  -10.80905
      H1     1.16194   12.26528  -10.76666
       H     3.70344   15.56958  -11.54417
       O     3.23784   14.70411  -11.58294
      H1     3.89835   14.05428  -11.24201
       H     6.20705   13.44151  -11.84906
       O     6.82187   14.17133  -11.74723
      H1     7.67370   13.75893  -11.71124
       H     3.66330   11.48559  -10.31430
       O     2.80300   11.44639   -9.87304
      H1     2.52026   10.53582   -9.83328
       H     1.97319   12.56168   -6.90703
       O     1.64132   11.76722   -7.35763
      H1     2.09395   11.77874   -8.21174
       H     1.79113   12.51575  -14.26273
       O     1.10097   11.86494  -14.28482
      H1     0.40410   12.23084  -13.72524
       H     6.64074    9.24033  -10.82802
       O     6.83469   10.07432  -11.32364
      H1     7.16261    9.69978  -12.16215
       H     1.51856   15.10247  -10.92011
       O     0.63284   15.33071  -10.66184
      H1     0.32445   15.81849  -11.40141
       H     7.12909   15.61398   -9.04134
       O     6.52155   14.88171   -9.07661
      H1     6.68322   14.46594   -9.92818
       H     5.60776   16.52955  -10.89954
       O     4.70060   16.80074  -10.99767
      H1     4.49023   17.19673  -10.13821
       H     6.29491   14.15424  -13.60117
       O     5.93914   14.13317  -14.50041
      H1     6.23585   13.30223  -14.89064
       H     4.27975   18.04013  -12.59618
       O     4.32775   18.78006  -13.20208
      H1     4.53508   19.51232  -12.62600
       H     4.43422   15.85011  -15.85158
       O     3.51180   16.18150  -15.96469
      H1     2.98098   15.63108  -15.35142
       H     2.99488    9.72380  -13.74707
       O     3.87522   10.09822  -13.88764
      H1     3.78185   10.51292  -14.74914

