60
frame 0 | Written by MDAnalysis XYZWriter (release 2.4.3)
       H   -14.53614   11.12754   11.92341
       O   -14.27409   10.82871   11.07675
      H1   -13.56390   11.45000   10.79978
       H   -15.94145   13.47206   10.77778
       O   -15.40552   13.57141    9.98714
      H1   -14.73494   12.88628   10.08909
       H   -17.79741    9.49172   12.15170
       O   -17.56787    8.90234   12.89450
      H1   -18.40512    8.75462   13.36685
       H   -17.16429    7.07670   10.19113
       O   -17.96256    7.27206   10.66004
      H1   -17.70638    7.58789   11.56506
       H   -13.31247   12.54566    7.58387
       O   -12.31891   12.43564    7.61272
      H1   -12.13503   11.58430    7.15979
       H   -18.03866   11.79056   11.70413
       O   -18.35479   11.00808   11.24124
      H1   -17.90390   11.01291   10.36624
       H   -16.34187    4.92935    8.75370
       O   -16.23045    3.95671    8.74795
      H1   -15.28279    3.90042    8.70514
       H   -17.88011   12.69716    8.18359
       O   -17.45823   13.55211    7.98266
      H1   -16.49716   13.35922    8.06995
       H   -16.17071   11.31601    3.57669
       O   -16.27518   12.20041    3.91421
      H1   -17.22365   12.37616    3.80654
       H   -12.22647    9.10836    9.89265
       O   -13.06573    8.93732    9.46974
      H1   -13.67850    9.47493   10.01163
       H   -18.28417    7.78400    3.86837
       O   -17.85346    8.50690    4.31674
      H1   -17.38556    8.00662    5.02634
       H   -14.49038    7.45795   11.78230
       O   -15.07817    6.85855   11.34608
      H1   -15.64652    6.57737   12.05305
       H   -13.17970    9.50187    7.72775
       O   -12.77872    9.82738    6.89218
      H1   -13.50877    9.88899    6.25265
       H   -18.46126   10.09889    5.16558
       O   -18.61189   10.90762    5.62886
      H1   -18.63347   11.51719    4.88001
       H   -18.69005   14.35958    6.89541
       O   -19.22204   14.81483    6.21579
      H1   -19.33674   15.71528    6.54456
       H   -17.48311   10.46603    6.80726
       O   -16.81676   10.08355    7.41517
      H1   -17.38484    9.57187    8.02773
       H   -15.48961    7.04633    7.97801
       O   -16.04977    6.85502    8.74999
      H1   -15.46082    7.07853    9.47049
       H   -15.76960   11.46221    6.94152
       O   -15.19142   12.22766    6.82414
      H1   -15.26779   12.45616    5.88146
       H   -15.63377    8.71547    6.67107
       O   -15.20132    7.93462    6.30970
      H1   -14.62245    8.24578    5.61651
       H   -16.85536    9.18527    3.09633
       O   -16.14156    9.64135    2.64863
      H1   -16.42735    9.86914    1.76072

