60
frame 0 | Written by MDAnalysis XYZWriter (release 2.4.3)
       H    15.88838   13.05864    4.72267
       O    16.57692   13.34422    4.13991
      H1    17.26124   13.25384    4.78464
       H    14.60875   14.46591    1.84506
       O    14.78502   15.19103    2.49914
      H1    15.35801   14.73513    3.09774
       H    16.79040   14.97741   11.39815
       O    17.56324   15.23394   10.89588
      H1    17.27745   15.90679   10.28933
       H    11.44549   15.98797    6.63887
       O    11.87046   16.63501    6.03994
      H1    11.73171   17.41069    6.62977
       H    17.94236   14.59063    2.28642
       O    18.56133   15.22656    1.90168
      H1    18.10355   16.03424    2.11043
       H    19.08805   14.39900    7.31177
       O    19.43170   15.26045    7.42946
      H1    19.31641   15.60095    6.52077
       H    19.38081   17.44340    5.66637
       O    19.29507   16.75634    4.98903
      H1    18.38265   16.98507    4.67455
       H    15.17593   16.77749   11.86209
       O    15.12052   17.77225   11.89993
      H1    14.92192   17.97672   12.84935
       H    13.96044   17.84029    8.25417
       O    14.59619   17.82449    7.50153
      H1    15.36313   17.50094    7.96888
       H    16.68756   17.40965    3.16801
       O    16.86240   17.53063    4.14954
      H1    16.06019   17.12634    4.55401
       H    16.88380   13.63662   10.18432
       O    16.81164   12.66157   10.16583
      H1    16.81942   12.48975    9.24139
       H    19.50529   18.58223    7.59159
       O    19.40058   19.02123    6.73980
      H1    18.56946   19.49247    6.98635
       H    14.34409   16.40422    6.13601
       O    14.91399   16.00958    5.43161
      H1    14.28496   15.44495    4.89917
       H    14.16790   17.88484   10.44588
       O    13.50002   18.26092    9.81091
      H1    12.72834   17.93579   10.26788
       H    10.46693   18.97931    7.29714
       O    11.36973   18.77743    7.61481
      H1    11.32649   19.29758    8.46684
       H    15.77101   14.94243    6.97053
       O    15.85782   14.73522    7.88873
      H1    16.28488   15.54988    8.19792
       H    13.66176   12.69683    7.77619
       O    13.50839   13.55032    7.40132
      H1    14.12992   14.13233    7.86790
       H    19.44278   12.04862    6.51148
       O    18.68423   12.35175    5.97030
      H1    19.07152   12.29294    5.08399
       H    17.37273   17.84943    9.49928
       O    17.10664   17.10969    9.00525
      H1    17.98964   16.81014    8.57468
       H    15.66036   16.47199    1.42088
       O    16.30842   17.17084    1.35412
      H1    15.74087   17.90808    1.16513

