60
frame 0 | Written by MDAnalysis XYZWriter (release 2.4.3)
       H    10.48940  -12.77553   12.04853
       O    10.94956  -13.05121   12.85899
      H1    10.42101  -12.70284   13.56899
       H    10.17485   -8.28198    6.60690
       O    10.15515   -8.57007    7.54900
      H1    10.69516   -9.35487    7.54936
       H     8.49686  -14.94115   11.16760
       O     9.02850  -15.44441   10.55890
      H1     8.44656  -15.95964   10.00314
       H     8.65715  -12.43416    9.91387
       O     8.75706  -12.46189    8.96291
      H1     8.56208  -11.50673    8.74496
       H     7.75502  -14.28508   14.17058
       O     7.34705  -13.43312   14.03134
      H1     7.70732  -13.16522   13.13181
       H    14.60147  -11.22163   10.45599
       O    14.88620  -11.60587    9.61172
      H1    14.83335  -10.88483    8.99551
       H     9.22089   -9.20050   13.10869
       O     9.26231   -9.31685   12.18716
      H1     8.85094   -8.51089   11.82528
       H    10.34321  -12.10047    9.75145
       O    10.97791  -11.72361   10.37742
      H1    11.75060  -12.27795   10.27129
       H    11.75728  -10.78224    8.51021
       O    11.47065  -10.91297    7.62336
      H1    12.28859  -11.07936    7.12942
       H    10.50553  -11.13535    6.15639
       O     9.88904  -11.39441    5.48379
      H1    10.23715  -10.96814    4.67619
       H     9.47437  -16.63958    6.64418
       O     9.60432  -15.82820    6.17668
      H1     9.97663  -15.22907    6.83599
       H    13.25076  -10.03885   11.62033
       O    14.18613  -10.32701   11.68481
      H1    14.19616  -11.04399   12.30888
       H     8.70080   -9.28003    8.17455
       O     8.10502   -9.75749    8.75746
      H1     7.26392   -9.56844    8.37449
       H    11.57394  -15.71874    8.57647
       O    11.01221  -14.94358    8.64624
      H1    10.28559  -15.24897    9.24408
       H     7.99871  -11.42590   12.16271
       O     8.23164  -12.24843   11.70526
      H1     7.36896  -12.59571   11.48348
       H    11.14625  -16.09578   12.26871
       O    10.92578  -15.83144   13.16182
      H1    10.77084  -14.87134   13.07024
       H    11.11627   -8.86574   11.57037
       O    11.60160   -9.39884   10.94709
      H1    11.08046  -10.19894   10.92273
       H    13.74705  -13.06700   10.13564
       O    12.93064  -13.51945   10.37697
      H1    12.68550  -14.02008    9.58923
       H    13.50724  -11.96638   14.55633
       O    13.58744  -12.26316   13.64722
      H1    12.73394  -12.60884   13.39035
       H     8.17865  -14.08219    7.80572
       O     7.50917  -14.54612    7.29649
      H1     8.07419  -15.09737    6.74492

