60
frame 0 | Written by MDAnalysis XYZWriter (release 2.4.3)
       H     3.11582   16.74252   -4.27111
       O     2.99711   16.64908   -3.31008
      H1     3.84571   16.40954   -2.95094
       H     5.64066   13.14339    0.03658
       O     4.98250   13.61765   -0.51341
      H1     4.33600   12.94397   -0.80845
       H     7.08805   13.96051    3.28897
       O     7.74073   13.54334    3.85834
      H1     7.40552   12.65194    3.99342
       H     7.17096   17.76728    4.75541
       O     7.58837   17.36032    3.97744
      H1     8.08153   16.63369    4.37880
       H     9.27606   12.54088   -2.04150
       O     8.30606   12.62801   -2.17280
      H1     8.09607   13.45309   -1.72861
       H     1.81641   18.42913   -2.57309
       O     1.05139   18.29633   -2.03375
      H1     1.19799   17.39035   -1.74045
       H    10.64370   18.34854    0.86120
       O    11.53224   18.17461    0.58957
      H1    11.38458   17.59694   -0.18530
       H     5.37496   15.03402   -1.62485
       O     5.45504   15.79123   -2.21895
      H1     5.45806   16.54271   -1.59188
       H     7.40684   15.52335    1.93340
       O     6.49957   15.63194    2.26280
      H1     6.61891   16.38734    2.81685
       H     2.97463   14.03718    0.80680
       O     2.23421   14.46200    1.25616
      H1     2.03732   13.78539    1.88102
       H     8.59238   19.03693   -0.60115
       O     8.19882   18.38239   -1.21182
      H1     8.55490   18.73226   -2.03366
       H     8.57866   15.75750   -0.79334
       O     8.16677   15.35650   -1.56682
      H1     7.29617   15.75773   -1.66804
       H     6.05309   16.58659    0.57292
       O     5.76330   17.37749    0.05781
      H1     6.55663   17.86374   -0.13689
       H     9.48706   16.53479    1.61789
       O     9.27371   15.94869    0.89882
      H1    10.12279   15.54532    0.65824
       H     6.52557   17.66617   -4.83024
       O     6.11446   18.55610   -4.78111
      H1     6.41449   19.07103   -5.53352
       H     5.46346   19.24006    3.87286
       O     4.62327   19.11613    3.34717
      H1     4.12993   18.47237    3.84160
       H     1.96496   17.48633    0.48620
       O     1.25568   16.85730    0.52287
      H1     1.72132   15.98079    0.62375
       H     8.97340   15.55895   -3.15642
       O     9.39143   15.91746   -3.94320
      H1     9.77840   15.16326   -4.40634
       H     3.86637   18.15514    0.06580
       O     3.18031   18.74557   -0.29563
      H1     3.43378   18.83870   -1.21206
       H     2.76578   18.01070    5.23660
       O     3.06519   17.43128    4.51612
      H1     2.31792   17.35376    3.92889

