60
frame 0 | Written by MDAnalysis XYZWriter (release 2.4.3)
       H    15.61395   17.09920  -13.49214
       O    15.10753   17.22459  -12.68359
      H1    14.20063   16.79609  -12.89323
       H    16.90624   17.73103   -6.53485
       O    16.84728   18.39960   -7.24556
      H1    17.77743   18.36300   -7.46641
       H    16.17892   11.89131  -14.03822
       O    16.41896   12.68546  -13.46965
      H1    15.81228   12.71773  -12.71201
       H    18.37577   15.21738  -17.64654
       O    18.40396   16.15483  -17.42590
      H1    17.69078   16.14757  -16.78481
       H    13.69897   19.70622  -12.97840
       O    13.80388   19.50840  -12.00662
      H1    14.17227   18.64132  -12.20497
       H    16.57821   14.12540  -14.44553
       O    16.43883   14.89707  -15.04511
      H1    15.87090   14.52402  -15.77407
       H    12.59577   16.48852  -14.46619
       O    12.44998   16.73058  -13.47774
      H1    11.82274   17.43859  -13.56707
       H    14.30504   17.08806   -9.05642
       O    13.44130   17.19751   -9.44042
      H1    13.46127   18.16422   -9.54753
       H    15.06145   15.51753  -11.56230
       O    14.57479   14.71314  -11.47935
      H1    14.39869   14.80839  -10.49222
       H    17.96776   15.35600  -13.76155
       O    18.53326   15.74412  -13.07696
      H1    18.37377   15.19933  -12.30635
       H    18.76353   14.80865   -9.96444
       O    17.90038   15.04166  -10.33179
      H1    17.53986   14.13190  -10.20793
       H    18.01640   17.78337  -11.94357
       O    18.02892   18.21547  -11.08745
      H1    18.01695   19.12805  -11.34360
       H    17.67131   12.06673  -12.31769
       O    18.36029   11.79038  -11.66065
      H1    17.98397   10.89919  -11.51639
       H    16.52765   18.38762  -16.26406
       O    17.45791   18.24376  -15.94915
      H1    17.99714   18.88176  -16.46511
       H    13.82621   14.04200   -7.47141
       O    14.77896   13.96130   -7.45634
      H1    15.22060   14.72561   -7.86388
       H    19.60898   19.60923   -8.36638
       O    19.15484   18.78698   -8.44653
      H1    18.86330   18.87037   -9.32875
       H    14.50409   17.79167  -18.08833
       O    14.47005   18.08814  -17.17095
      H1    13.84359   17.50484  -16.72571
       H    17.62183   12.12320  -10.29465
       O    16.86856   12.59303   -9.75479
      H1    17.05511   12.46365   -8.83282
       H    16.75805   15.92604   -9.25091
       O    15.98148   16.06458   -8.60782
      H1    16.36118   16.82917   -8.11847
       H    13.23840   13.87270  -12.35998
       O    12.67894   13.23300  -12.86925
      H1    11.86017   13.74628  -13.04400

