60
frame 0 | Written by MDAnalysis XYZWriter (release 2.4.3)
       H     3.11582   16.74252   -4.27111
       O     2.99711   16.64908   -3.31008
      H1     3.84571   16.40954   -2.95094
       H     5.64066   13.14339    0.03658
       O     4.98250   13.61765   -0.51341
      H1     4.33600   12.94397   -0.80845
       H     9.27606   12.54088   -2.04150
       O     8.30606   12.62801   -2.17280
      H1     8.09607   13.45309   -1.72861
       H     1.98830   13.36048   -1.44796
       O     2.50596   12.54257   -1.37405
      H1     2.74930   12.35071   -2.26469
       H     5.37496   15.03402   -1.62485
       O     5.45504   15.79123   -2.21895
      H1     5.45806   16.54271   -1.59188
       H     7.40684   15.52335    1.93340
       O     6.49957   15.63194    2.26280
      H1     6.61891   16.38734    2.81685
       H     2.97463   14.03718    0.80680
       O     2.23421   14.46200    1.25616
      H1     2.03732   13.78539    1.88102
       H     4.29740   12.77290   -3.61827
       O     4.04578   11.85304   -3.42639
      H1     3.74967   11.56930   -4.28901
       H     8.59238   19.03693   -0.60115
       O     8.19882   18.38239   -1.21182
      H1     8.55490   18.73226   -2.03366
       H     8.57866   15.75750   -0.79334
       O     8.16677   15.35650   -1.56682
      H1     7.29617   15.75773   -1.66804
       H     5.74642   13.48173   -5.89403
       O     5.22679   14.18923   -5.50434
      H1     4.87543   14.64936   -6.26745
       H     6.05309   16.58659    0.57292
       O     5.76330   17.37749    0.05781
      H1     6.55663   17.86374   -0.13689
       H     0.32318   14.34507   -2.15748
       O     1.01186   14.82336   -1.72223
      H1     1.48540   15.17493   -2.47693
       H     6.52557   17.66617   -4.83024
       O     6.11446   18.55610   -4.78111
      H1     6.41449   19.07103   -5.53352
       H     1.96496   17.48633    0.48620
       O     1.25568   16.85730    0.52287
      H1     1.72132   15.98079    0.62375
       H     7.69310   15.62299   -4.71368
       O     7.00505   16.05874   -5.23469
      H1     6.28741   15.37991   -5.20310
       H     7.02286   12.23894   -3.58010
       O     6.66358   11.50971   -4.04294
      H1     5.77452   11.41874   -3.68878
       H     8.97340   15.55895   -3.15642
       O     9.39143   15.91746   -3.94320
      H1     9.77840   15.16326   -4.40634
       H     6.67818   11.40935    1.43024
       O     6.79428   12.12615    0.79840
      H1     7.71026   12.38634    0.88165
       H     3.86637   18.15514    0.06580
       O     3.18031   18.74557   -0.29563
      H1     3.43378   18.83870   -1.21206

