60
frame 0 | Written by MDAnalysis XYZWriter (release 2.4.3)
       H    17.67793   -7.09151    4.40657
       O    18.12645   -6.86408    5.22727
      H1    18.29474   -5.93148    5.11295
       H    14.57889   -9.33601   -1.10302
       O    13.82526   -9.85118   -1.42711
      H1    14.17998  -10.75030   -1.50237
       H    13.85349   -9.70965    3.67328
       O    13.90138   -9.51161    4.60362
      H1    13.81295  -10.36975    5.04986
       H    16.18318   -6.97481    1.92354
       O    16.64623   -7.54702    1.30297
      H1    17.57906   -7.22942    1.39895
       H    15.01266   -7.42993    4.63842
       O    14.45869   -6.83640    5.20298
      H1    14.69634   -5.97167    4.87174
       H    15.00531  -12.99905   -2.50846
       O    15.06641  -12.22097   -1.94050
      H1    14.67891  -12.52498   -1.09431
       H    15.93322   -4.85847    3.74958
       O    15.61327   -5.16569    2.91756
      H1    14.68620   -4.94736    2.86619
       H    17.32109   -3.36266    0.71019
       O    17.08640   -4.29000    0.50327
      H1    17.01385   -4.62848    1.39960
       H    16.32539   -8.38869    2.83341
       O    16.61231   -8.39006    3.76307
      H1    16.15743   -9.15426    4.11485
       H    12.34985  -11.78659    0.14185
       O    12.92624  -12.56104    0.27735
      H1    12.37830  -13.15674    0.82483
       H    13.54868   -7.54943    0.54002
       O    13.42764   -8.13070    1.34303
      H1    12.96527   -8.85938    0.90006
       H    11.08715   -9.81531    0.06301
       O    11.90900  -10.18873    0.36039
      H1    12.53195   -9.98664   -0.33590
       H    17.41472  -14.38507    3.66940
       O    16.59232  -14.20632    3.23183
      H1    16.83674  -13.56013    2.57628
       H    14.60364   -7.23513   -1.03356
       O    15.46686   -7.64583   -1.13760
      H1    15.91817   -7.42631   -0.30542
       H    17.89670  -11.94173   -4.00726
       O    16.95266  -11.78955   -4.07792
      H1    16.63657  -11.68076   -3.17275
       H    16.99250   -9.35357    1.32034
       O    17.46715  -10.15275    1.60031
      H1    18.36353   -9.88304    1.85663
       H    17.97297   -8.68440   -2.63919
       O    17.19195   -8.53921   -3.18833
      H1    16.55485   -8.37881   -2.47766
       H    16.94131  -13.74743   -0.94912
       O    17.60163  -13.83657   -1.66022
      H1    17.72870  -14.78823   -1.71226
       H    17.63519  -13.04397    0.99200
       O    16.75442  -12.68707    1.11317
      H1    16.92980  -11.72988    1.19163
       H    15.24513  -12.17122    2.43546
       O    14.39851  -11.72876    2.53568
      H1    13.90883  -12.02041    1.75385

