60
frame 0 | Written by MDAnalysis XYZWriter (release 2.4.3)
       H    17.69453   13.46025  -11.93100
       O    17.81685   13.32148  -10.96747
      H1    16.94066   12.97909  -10.70170
       H    18.72042    9.87306   -9.57943
       O    18.94994   10.20496  -10.48025
      H1    18.49350    9.55564  -11.04517
       H    16.86602   10.08393  -13.16142
       O    17.67420   10.63358  -13.02162
      H1    17.56999   11.05843  -12.15881
       H    10.43642   11.36864  -16.55800
       O    11.38369   11.51087  -16.39102
      H1    11.83657   10.67785  -16.49417
       H    13.58060   12.58342  -18.44455
       O    14.41922   12.11457  -18.47373
      H1    15.04932   12.78356  -18.14109
       H    15.46663   13.28042  -13.90779
       O    15.15545   13.37581  -12.99758
      H1    15.13253   14.33347  -12.82816
       H    19.20350    4.86359  -15.53437
       O    19.29488    4.03914  -16.01625
      H1    18.39804    3.68969  -16.05541
       H    11.96162   10.86686  -14.47263
       O    12.74578   10.69010  -13.92576
      H1    13.44007   10.90884  -14.55230
       H    14.65665    4.75846  -16.49194
       O    15.40170    5.11191  -17.00412
      H1    15.99450    4.36747  -17.07206
       H    14.41996   11.47587  -16.43669
       O    14.66321   10.72819  -15.84320
      H1    14.00495   10.03102  -15.93105
       H    18.20720   11.88168  -16.28889
       O    18.27534   12.74487  -15.87539
      H1    18.22354   12.52061  -14.92496
       H    14.95267    6.76012  -17.93527
       O    14.47116    7.55778  -18.18618
      H1    15.16112    8.23025  -18.36668
       H    16.80102    7.92950  -16.55860
       O    17.15024    7.14526  -17.02762
      H1    16.43830    6.47705  -16.97979
       H    17.24805   10.23788  -17.52656
       O    18.19065   10.23524  -17.20725
      H1    18.63663   10.48510  -18.02296
       H    15.30223   14.51845  -16.54156
       O    15.62156   13.61727  -16.71055
      H1    16.49448   13.53535  -16.26768
       H    17.78866    6.40645  -15.27656
       O    18.46035    6.27979  -14.61186
      H1    17.92169    5.98005  -13.85351
       H    15.68200    9.59611  -14.81945
       O    16.05849    8.81920  -14.38748
      H1    15.33990    8.50383  -13.82004
       H    16.48380    7.77805  -11.16215
       O    16.10454    8.66378  -11.34042
      H1    15.94814    9.03139  -10.44062
       H    19.12050   14.53030  -13.26025
       O    18.18933   14.30934  -13.44070
      H1    17.96481   14.96635  -14.07527
       H    13.39415    8.39857  -16.90688
       O    12.63394    8.93964  -16.62681
      H1    12.06419    8.36448  -16.13032

