60
frame 0 | Written by MDAnalysis XYZWriter (release 2.4.3)
       H    -4.64592    6.40275   -8.23908
       O    -4.46209    6.52960   -9.17632
      H1    -5.30534    6.51967   -9.59357
       H   -13.03673    5.27214  -13.63854
       O   -12.52096    4.56156  -13.26341
      H1   -11.58722    4.77898  -13.49170
       H    -7.28984    8.65087   -9.26344
       O    -6.43466    8.59360   -8.78958
      H1    -6.53354    7.77657   -8.27262
       H   -11.18181    6.91755  -10.17136
       O   -11.30149    6.51432  -11.03668
      H1   -10.62996    6.94129  -11.57174
       H    -9.89951    0.62877  -10.17240
       O    -9.40106    1.43682  -10.31095
      H1    -9.19317    1.36914  -11.24930
       H    -7.80191    0.94857   -9.64049
       O    -6.96723    0.58063   -9.32538
      H1    -6.53166    1.41288   -9.15340
       H   -11.31643    4.89476  -10.57947
       O   -10.92679    4.14155  -10.10383
      H1   -11.69524    3.72964   -9.67937
       H   -10.10852    4.99090   -7.90351
       O   -10.06025    4.11303   -7.47949
      H1   -10.50240    3.57801   -8.14337
       H    -9.98192    5.54827  -14.83689
       O   -10.03544    5.56051  -13.87245
      H1    -9.61933    6.43994  -13.70961
       H    -9.07941    5.39071   -9.95520
       O    -8.07881    5.35734   -9.89616
      H1    -7.91087    5.64988   -8.98570
       H    -6.64160    5.18716   -7.47893
       O    -6.65705    6.15577   -7.34814
      H1    -7.35005    6.27321   -6.66819
       H    -6.25229    3.38208   -8.90958
       O    -5.56733    3.05341   -9.49058
      H1    -5.97238    2.98103  -10.34073
       H    -8.62940    8.50686  -12.73448
       O    -9.04421    7.66665  -12.52072
      H1    -8.32145    7.00607  -12.66827
       H    -7.04071    5.54367  -11.37876
       O    -6.65679    5.81650  -12.27158
      H1    -5.89252    6.34323  -12.06048
       H    -9.63927    9.34015  -10.00897
       O    -8.84633    8.81075   -9.96204
      H1    -8.95093    8.07938  -10.57487
       H    -6.45525    4.12001  -12.46287
       O    -6.15490    3.19732  -12.42365
      H1    -6.81317    2.77477  -12.94920
       H   -11.16268    2.02881  -11.00952
       O   -11.85635    1.45294  -11.33926
      H1   -12.60811    2.04080  -11.19211
       H   -13.75933    6.51711   -9.84280
       O   -13.41282    6.92333   -9.05451
      H1   -14.04689    7.64273   -8.89692
       H    -7.72498    2.37789   -6.77024
       O    -7.53661    3.21923   -7.21751
      H1    -8.42315    3.56673   -7.31076
       H   -10.51312    8.38540   -8.02663
       O   -10.70172    7.48893   -8.35635
      H1   -11.63296    7.44434   -8.51540

