60
frame 0 | Written by MDAnalysis XYZWriter (release 2.4.3)
       H    -3.42658    4.34910   13.80140
       O    -4.00968    4.41481   14.53072
      H1    -3.69929    5.24716   14.95080
       H     3.28249    5.10296   11.01668
       O     3.88370    4.36351   10.94125
      H1     3.69624    4.07213   10.03268
       H     3.18885    2.38661   11.26963
       O     3.00040    1.43893   11.19939
      H1     2.06198    1.47193   10.96394
       H    -3.61135    1.80823   12.72682
       O    -3.49596    2.37657   11.98349
      H1    -4.03837    3.15186   12.21323
       H     0.22980    0.84662   10.98987
       O     0.45401    1.42207   10.27427
      H1     0.05442    2.27104   10.44343
       H     1.28736    1.37199   18.06556
       O     0.74376    1.31698   17.26136
      H1     1.42422    1.34474   16.55815
       H     2.60040    6.79092   15.36499
       O     2.85546    6.07427   15.97395
      H1     2.83681    5.28047   15.43261
       H     6.01438    0.68447   13.33992
       O     5.73686    0.73588   14.25336
      H1     4.83678    1.04620   14.25638
       H     3.52006    4.23909   13.84842
       O     3.09594    3.64289   14.48865
      H1     2.16209    3.62492   14.17873
       H     0.15067    2.99008   13.07729
       O     0.58608    2.87014   13.93578
      H1     0.30384    3.69603   14.41111
       H    -3.30018   -0.24069   13.45532
       O    -3.52408    0.45767   14.06854
      H1    -2.65787    0.78862   14.34689
       H     0.74731    1.03141   12.89003
       O     0.15673    0.28837   12.69969
      H1     0.72282   -0.40319   12.28810
       H    -0.45026    6.18101   13.40963
       O    -0.13953    7.02033   13.04972
      H1    -0.97516    7.40305   12.65920
       H    -0.55644   -1.53910   15.15150
       O    -1.07340   -1.44878   14.33931
      H1    -0.63993   -0.77619   13.83199
       H     0.73579   -0.84197   16.31527
       O     1.40767   -1.44946   15.95911
      H1     1.97154   -0.85871   15.42282
       H     3.40606    0.65825   15.79381
       O     2.88536    0.81591   14.99758
      H1     3.12094    1.71123   14.74224
       H    -0.92018    4.33263   11.07693
       O    -0.90145    3.75670   11.84052
      H1    -1.77386    3.36980   11.82934
       H    -0.58534    1.72209   15.15593
       O    -1.43810    1.42313   15.46871
      H1    -1.52506    1.92467   16.30429
       H    -1.46014    4.72961   15.73795
       O    -1.05314    5.23097   14.98053
      H1    -0.85396    6.09311   15.39348
       H     1.24296    5.62894   17.59133
       O     0.29824    5.56773   17.82675
      H1     0.25246    4.77648   18.41543

