60
frame 1 | Written by MDAnalysis XYZWriter (release 2.4.3)
       H    17.15066  -11.73410   -5.99598
       O    16.58060  -11.30506   -6.61158
      H1    16.78485  -10.35321   -6.55350
       H    11.60686  -14.86581   -1.93483
       O    11.86509  -15.13185   -2.79053
      H1    12.45054  -15.91325   -2.76219
       H    13.86830  -12.05071   -4.15117
       O    13.75606  -12.99866   -4.00968
      H1    13.12688  -13.12627   -3.25621
       H    16.19654  -15.33956   -5.85356
       O    16.77423  -15.92146   -5.33772
      H1    16.64714  -16.85943   -5.61684
       H    13.63388  -18.34303   -2.85234
       O    13.80243  -17.63163   -2.19924
      H1    13.81484  -18.13326   -1.39603
       H    18.71109  -19.43427   -5.65094
       O    19.56180  -19.65382   -5.32166
      H1    19.49644  -19.78838   -4.34730
       H    13.24782  -19.32885   -8.13065
       O    13.65778  -19.15445   -8.98958
      H1    13.86589  -18.16924   -9.15400
       H    11.28842  -18.65995   -5.31845
       O    11.43110  -17.98662   -4.60929
      H1    11.80168  -17.16989   -4.99873
       H    11.64277  -15.14727   -6.03082
       O    12.09089  -15.95955   -6.24705
      H1    11.70047  -16.20563   -7.10864
       H    15.92678  -14.75683   -2.98190
       O    16.11319  -13.82598   -2.77117
      H1    15.30899  -13.31084   -2.95910
       H    13.51807  -14.77015   -6.23596
       O    14.42817  -14.46470   -6.19821
      H1    14.43660  -13.81161   -5.45813
       H    18.96134  -14.70639   -1.21229
       O    19.38448  -14.16514   -1.89070
      H1    18.62823  -13.70349   -2.27600
       H    14.65750  -14.09670   -8.07869
       O    14.45778  -14.29781   -8.98859
      H1    13.95448  -13.57612   -9.26637
       H    18.35276  -16.05667   -8.49734
       O    18.13670  -15.80623   -9.41518
      H1    18.96333  -15.43034   -9.71015
       H    18.90112  -13.06745   -4.84556
       O    18.23722  -12.38999   -4.54630
      H1    17.49189  -12.97305   -4.24102
       H    17.93649  -11.21441   -8.96275
       O    18.50511  -11.95132   -8.56600
      H1    17.86483  -12.65391   -8.27294
       H    16.28661  -16.49918   -3.87926
       O    16.26449  -16.52873   -2.91920
      H1    15.42877  -16.98460   -2.64331
       H    17.87334  -17.29184   -2.29393
       O    18.54975  -17.41758   -1.61193
      H1    19.03792  -18.23966   -1.84920
       H    16.51908  -19.00125   -6.60720
       O    16.79893  -18.70305   -5.70604
      H1    16.35568  -19.32148   -5.08901
       H    14.40256  -15.84340   -9.61167
       O    14.28979  -16.68607  -10.10269
      H1    15.09301  -17.04447  -10.56304

