60
frame 0 | Written by MDAnalysis XYZWriter (release 2.4.3)
       H   -12.53815    2.46938    9.84560
       O   -11.91238    1.74602    9.94189
      H1   -12.46957    1.12074   10.45911
       H    -9.37303   -0.07404    9.21462
       O    -9.77869   -0.23696    8.37436
      H1   -10.54931    0.36112    8.49498
       H    -9.29394    3.75099    9.46892
       O    -9.75440    3.23024    8.81187
      H1   -10.50765    2.89904    9.29177
       H   -12.87995    4.51979    9.42645
       O   -13.39132    4.06800    8.73932
      H1   -13.21268    4.66089    8.00632
       H   -10.39661    6.36597    8.84989
       O    -9.64598    6.52256    8.23227
      H1   -10.06367    6.66709    7.36877
       H   -13.65602    2.58304    4.06116
       O   -14.01085    3.24486    3.44948
      H1   -13.44395    3.13408    2.69561
       H   -12.41968    7.30155    9.28750
       O   -12.00476    6.44320    9.43217
      H1   -11.85028    6.42066   10.35908
       H   -11.70433    7.10945    6.20323
       O   -10.88385    7.09374    5.69766
      H1   -11.26017    7.23223    4.79048
       H   -15.83997    0.48608    6.75127
       O   -15.77822    1.42577    6.51093
      H1   -14.81218    1.50770    6.56071
       H   -12.56029    4.61957    6.10527
       O   -13.24151    5.22610    6.28971
      H1   -13.92561    4.92959    5.69286
       H   -11.67155    1.72237    5.01898
       O   -12.09953    1.11464    4.40358
      H1   -12.39901    0.41556    4.97326
       H   -10.62574    3.79422    5.36864
       O   -11.17084    3.27264    5.95556
      H1   -10.65646    3.12160    6.76342
       H    -9.32550    0.12769    4.48050
       O    -9.41581   -0.64359    5.05052
      H1    -9.06928   -0.40180    5.92380
       H    -8.16643    5.75583    7.40971
       O    -7.54043    5.69452    6.67618
      H1    -7.55379    6.59833    6.27748
       H   -12.73074    2.15672    7.17862
       O   -12.80440    1.21043    7.35790
      H1   -12.78082    1.21754    8.31425
       H    -9.09981    2.35083    2.80902
       O    -8.69969    1.49711    3.06281
      H1    -7.99201    1.36405    2.43118
       H    -9.59024    2.69543   12.51531
       O   -10.19118    3.15075   11.90291
      H1   -10.52815    2.40611   11.34683
       H    -7.52132    1.46237    4.44263
       O    -6.76055    1.20933    4.96376
      H1    -7.10351    1.27031    5.87031
       H    -9.46480    5.52854    4.33041
       O    -9.38600    4.55657    4.45855
      H1    -8.58770    4.50849    5.05700
       H    -7.99178    0.70008    7.62207
       O    -7.69349    1.58253    7.40254
      H1    -8.34539    2.20012    7.83382

