60
frame 0 | Written by MDAnalysis XYZWriter (release 2.4.3)
       H    -5.00677    0.35827   -5.54761
       O    -5.38152   -0.52865   -5.49578
      H1    -5.90666   -0.47065   -4.68963
       H    -3.26250    3.16155   -3.09488
       O    -3.72330    2.50716   -3.66359
      H1    -3.92683    1.78875   -3.04461
       H    -7.14357   -0.28630   -2.71923
       O    -6.68792   -0.86656   -3.32680
      H1    -7.09868   -1.71958   -3.17676
       H    -4.88677   -2.84841   -0.58104
       O    -4.24997   -2.36511   -1.09549
      H1    -4.61688   -2.36019   -2.00226
       H    -3.54772    3.00403    0.46008
       O    -3.90206    2.77875   -0.39831
      H1    -3.73835    1.84650   -0.49356
       H    -8.08581   -3.88634   -3.39334
       O    -7.93085   -3.36024   -2.59790
      H1    -7.66564   -4.08403   -2.01558
       H    -5.33533    1.64317    2.60103
       O    -5.69905    1.12982    1.88558
      H1    -5.87083    1.78889    1.21399
       H    -8.00154   -2.74852   -6.78076
       O    -8.81678   -3.19685   -6.47330
      H1    -9.35564   -2.47491   -6.06562
       H    -7.25486    2.27030   -1.98292
       O    -7.36626    1.35167   -1.80361
      H1    -8.34953    1.30008   -1.77445
       H    -9.41064   -2.99932   -1.97505
       O   -10.23470   -2.55283   -1.64043
      H1   -10.95481   -3.02340   -2.09759
       H   -10.82786   -1.70900   -4.85257
       O   -10.23938   -1.07539   -5.35986
      H1   -10.00171   -0.45615   -4.68254
       H    -5.22338   -3.48052   -3.89524
       O    -4.61454   -2.82645   -3.56742
      H1    -4.15516   -2.52404   -4.36451
       H    -8.86637    1.20838   -4.51110
       O    -9.69986    1.32375   -4.04515
      H1    -9.45256    2.05890   -3.46998
       H    -6.68238   -0.91920   -8.03267
       O    -6.43838   -1.76693   -7.68784
      H1    -5.85635   -1.60518   -6.95443
       H    -3.35147   -0.26075   -2.57625
       O    -4.19347    0.17057   -2.40556
      H1    -4.81448   -0.42536   -2.82060
       H    -6.91008    0.13320   -5.94512
       O    -7.64199    0.77080   -6.01464
      H1    -8.27666    0.33784   -6.60074
       H   -12.20650   -1.59259   -3.24813
       O   -11.70016   -0.77451   -3.11981
      H1   -10.94889   -1.06580   -2.61730
       H    -3.84422   -0.41921   -0.47468
       O    -3.64001   -0.08767    0.43068
      H1    -4.49127    0.02565    0.89433
       H   -10.12260   -0.16124    0.24449
       O   -10.21576   -0.58096    1.11263
      H1   -10.81912   -1.30061    0.98664
       H   -10.32952    2.08979   -1.12984
       O   -10.17935    1.14064   -1.17358
      H1   -10.81914    0.83833   -1.80533

