60
frame 0 | Written by MDAnalysis XYZWriter (release 2.4.3)
       H    -4.91602   -3.30978    6.77170
       O    -5.23299   -4.06549    6.25818
      H1    -4.61764   -4.75128    6.50334
       H    -3.81661   -6.45110    3.58240
       O    -3.87213   -6.33341    2.63143
      H1    -4.06634   -5.39975    2.58077
       H    -1.07462   -7.11477    5.39239
       O    -0.97058   -6.18984    5.67580
      H1    -1.18443   -5.67377    4.86049
       H    -6.25998   -6.93445    7.77211
       O    -5.66677   -7.69905    7.86307
      H1    -4.80759   -7.33832    8.03571
       H    -7.60157   -7.80979    4.94448
       O    -8.47797   -7.39944    5.03451
      H1    -8.57188   -7.21629    5.98441
       H    -3.14316   -9.61052    3.35767
       O    -2.28964   -9.27347    3.07217
      H1    -1.91336   -9.91902    2.48290
       H    -5.99070   -8.21641    0.43703
       O    -5.06728   -8.26354    0.81458
      H1    -5.04472   -7.51970    1.44310
       H    -3.40532   -8.11033    5.45219
       O    -3.98959   -7.36568    5.25618
      H1    -4.87820   -7.72471    5.40250
       H    -2.25550   -9.10329   -0.42238
       O    -1.53356   -8.47283   -0.56300
      H1    -1.81843   -7.68169   -0.08500
       H    -6.02543   -8.72537    6.51246
       O    -6.36843   -8.97680    5.63998
      H1    -6.42195   -9.92898    5.65571
       H    -2.74021   -5.78913    7.15016
       O    -3.42931   -5.78227    7.83733
      H1    -3.14436   -5.05190    8.39932
       H    -2.67175   -3.05548   -0.74131
       O    -1.76247   -3.40884   -0.52729
      H1    -1.93486   -4.25148   -0.08337
       H    -4.39697   -6.47129   -1.74043
       O    -4.38701   -6.14834   -0.81500
      H1    -4.49741   -6.95920   -0.33287
       H    -6.37472   -3.33383    1.28234
       O    -5.49312   -3.73179    1.18817
      H1    -5.05780   -3.41425    2.01501
       H    -1.01349   -2.84702    5.02611
       O    -1.19160   -3.48773    4.30363
      H1    -0.29790   -3.75994    4.08621
       H     0.76557   -7.43381    1.65521
       O     0.76915   -6.55351    2.02319
      H1     0.89679   -6.69109    2.95874
       H    -1.06824   -9.02682    4.50222
       O    -0.81844   -8.74395    5.36883
      H1     0.11135   -8.93377    5.44411
       H    -2.37539   -5.82480    1.29919
       O    -1.58140   -5.95629    0.77359
      H1    -0.90193   -6.16634    1.42005
       H    -4.42843   -3.92463    4.31414
       O    -3.98793   -3.63101    3.51009
      H1    -3.08986   -3.40554    3.82333
       H    -5.50280   -9.26201    3.81437
       O    -5.00642   -9.81951    3.16704
      H1    -4.93869   -9.28136    2.36521

