60
frame 0 | Written by MDAnalysis XYZWriter (release 2.4.3)
       H    16.04260   13.55385    7.86866
       O    16.18046   12.61082    7.68055
      H1    17.12796   12.46566    7.79617
       H    13.85320   14.25440   11.04255
       O    14.60394   13.65548   11.29659
      H1    14.10825   12.91258   11.71100
       H    17.39581   14.19436    5.01182
       O    16.86131   13.33792    5.00108
      H1    16.53868   13.18415    5.89953
       H    14.90363   18.93274   10.25970
       O    14.42864   18.61517    9.45538
      H1    15.13670   18.64654    8.82120
       H    16.92200   17.29382   16.15051
       O    16.25180   16.82840   15.63168
      H1    15.95740   16.09071   16.18438
       H    12.73467   15.97258    9.70605
       O    13.48547   16.17205   10.21318
      H1    13.95279   16.82928    9.66714
       H    14.48949   17.60730   12.66606
       O    13.56153   17.84995   12.51671
      H1    13.37708   17.19547   11.80788
       H    16.59315   16.99126   13.67343
       O    16.41398   17.03081   12.71669
      H1    16.40016   16.10021   12.44143
       H    14.64170   16.43179    6.33300
       O    15.08970   16.98563    7.02013
      H1    15.50212   17.67902    6.47139
       H    14.54816   14.39809   12.86532
       O    14.08191   14.82482   13.57273
      H1    13.27722   14.25454   13.64949
       H    17.98886   18.21751    6.55720
       O    17.76101   17.34685    6.25954
      H1    17.15324   17.07469    6.96867
       H    13.16689   17.14929    7.32215
       O    12.31252   16.70679    7.31421
      H1    11.74962   17.31025    6.76757
       H    18.28055   11.55410    9.57687
       O    18.42575   11.66814    8.62371
      H1    18.64389   10.81781    8.26748
       H    18.32206   16.92966   10.13807
       O    17.94934   17.72534   10.53733
      H1    17.40268   17.38125   11.25527
       H    17.95410   14.64096   13.79545
       O    17.94098   14.88145   14.75129
      H1    17.04962   15.26860   14.86285
       H    18.59325   11.88609   13.86534
       O    19.24608   12.31754   14.42500
      H1    19.00538   13.23769   14.48183
       H    17.39536   11.24838   12.49719
       O    17.26868   10.96356   13.41511
      H1    16.54576   11.53479   13.74730
       H    16.76597   10.09162    9.89731
       O    16.40993   10.79445   10.42419
      H1    16.16906   11.45284    9.77240
       H    15.78042   15.99399    8.40520
       O    15.87780   15.19288    8.94004
      H1    14.98912   15.04729    9.26941
       H    17.75287   14.43054   11.32350
       O    17.17681   14.40976   12.10382
      H1    16.31246   14.19977   11.72819

