60
frame 1 | Written by MDAnalysis XYZWriter (release 2.4.3)
       H   -10.92307   10.50888   -2.11745
       O   -11.57612   10.36012   -2.83337
      H1   -11.99996    9.54929   -2.55451
       H    -7.85653    4.45786   -0.87334
       O    -8.18887    5.34857   -0.75977
      H1    -8.27458    5.42773    0.19866
       H   -11.41345    7.26544   -4.86177
       O   -11.58493    6.53030   -4.28503
      H1   -12.20519    6.89378   -3.62863
       H    -8.87103   11.23255   -2.02233
       O    -9.41249   10.92280   -1.27531
      H1    -9.15871   11.48360   -0.51273
       H   -12.26179    6.19424   -1.13826
       O   -12.40165    5.31173   -0.78984
      H1   -11.60109    4.82747   -1.09831
       H    -9.89353    4.30705   -2.47254
       O   -10.18041    3.88156   -1.62839
      H1    -9.68965    4.42855   -0.98058
       H    -7.92559    8.41883   -1.15903
       O    -7.14904    8.76629   -0.73424
      H1    -6.75963    8.01942   -0.23579
       H    -6.15119    6.60287   -2.06778
       O    -6.13115    6.90982   -2.95801
      H1    -5.34879    6.51249   -3.34365
       H   -10.31071    5.51023   -4.07848
       O    -9.65521    4.83938   -4.22187
      H1    -8.97806    5.29260   -4.72042
       H    -8.86110   10.04464    1.40194
       O    -9.25381    9.20069    1.61101
      H1    -9.88184    8.99388    0.90967
       H    -7.21953    6.55446   -5.77248
       O    -7.50331    5.65926   -5.93460
      H1    -6.95278    5.17505   -5.30018
       H    -6.60676   10.97371    1.74671
       O    -7.39039   11.09791    1.22078
      H1    -7.20775   10.43458    0.55490
       H    -7.96626   12.18873   -4.20310
       O    -7.53958   11.42014   -3.79111
      H1    -8.06042   10.73208   -4.20693
       H   -10.33611    8.72281   -5.80204
       O   -10.80597    8.32830   -6.55294
      H1   -10.08895    7.96070   -7.07516
       H    -9.48057   10.61155   -5.43632
       O    -9.56114    9.87379   -4.80017
      H1   -10.19526   10.18783   -4.18063
       H   -12.64680    9.81526    0.10856
       O   -11.76950    9.47443    0.31774
      H1   -11.94534    9.32370    1.26725
       H    -6.54885    8.22938   -6.52364
       O    -7.26766    8.25624   -5.82177
      H1    -6.72492    8.31724   -5.03898
       H   -12.26028    8.27337   -1.05982
       O   -12.04778    7.84949   -1.90858
      H1   -11.13525    8.04429   -2.12162
       H    -8.51972    6.83340   -2.50957
       O    -9.00311    7.65731   -2.68147
      H1    -8.84053    7.89266   -3.59432
       H    -6.03499    9.93558   -1.49272
       O    -5.35776   10.50777   -1.88000
      H1    -5.66269   10.77531   -2.76669

