60
frame 1 | Written by MDAnalysis XYZWriter (release 2.4.3)
       H   -12.77864    7.08459  -10.68853
       O   -12.11446    6.56384  -11.11463
      H1   -11.26300    7.03505  -11.07943
       H    -8.04005   10.54767  -15.60983
       O    -8.54179    9.78172  -15.29826
      H1    -9.48321   10.01719  -15.48143
       H    -7.57844   10.07719  -12.42821
       O    -8.41743    9.72693  -12.68174
      H1    -8.44003    9.79425  -13.64870
       H   -12.19471    7.20872  -17.84726
       O   -12.30350    8.06411  -17.39887
      H1   -13.13999    7.89893  -16.93605
       H   -11.42097    9.19160  -16.02291
       O   -11.28081    9.65261  -15.20376
      H1   -11.45245    8.98821  -14.51379
       H    -9.11302    9.69666  -17.97708
       O    -8.60231   10.49641  -18.22038
      H1    -8.61008   10.43451  -19.17064
       H   -10.82598   12.33528  -17.14029
       O    -9.94990   12.54096  -17.47520
      H1    -9.47374   11.71384  -17.32950
       H    -9.28789    4.70760  -17.12298
       O    -9.29943    5.35391  -16.43867
      H1    -9.21876    6.20280  -16.86488
       H   -15.92132    9.24756  -11.31038
       O   -15.44918    9.71502  -12.00232
      H1   -14.59823    9.97408  -11.65294
       H   -14.04724    8.78463  -14.66124
       O   -14.30330    7.83514  -14.79473
      H1   -14.92327    7.65383  -14.07163
       H   -12.94468   10.73184  -17.52432
       O   -12.63193   11.25454  -18.27998
      H1   -13.43802   11.53670  -18.73527
       H    -8.74345    7.49813  -17.91759
       O    -9.26886    7.92852  -17.20282
      H1    -8.64352    8.09218  -16.50221
       H   -10.82066    5.33352  -15.25823
       O   -11.22977    5.18911  -14.39493
      H1   -11.59096    6.08008  -14.19647
       H   -12.80433    7.69314  -14.05583
       O   -11.96015    7.63565  -13.61139
      H1   -12.17661    7.43016  -12.69744
       H    -8.71494    7.63324  -12.52265
       O    -8.90256    6.68335  -12.45189
      H1    -9.37328    6.53099  -13.30611
       H   -13.60712   11.31606  -14.60100
       O   -14.13582   10.77836  -15.16610
      H1   -14.61758   11.42824  -15.70063
       H   -11.66251    9.75830  -10.48154
       O   -10.82832    9.25858  -10.48491
      H1   -10.17084    9.78886  -10.93644
       H   -11.61163   12.31048  -13.33583
       O   -12.54191   12.39999  -13.61758
      H1   -12.46732   12.79501  -14.48719
       H   -15.93198   10.32328  -14.63608
       O   -16.89254   10.33004  -14.75880
      H1   -17.04677    9.82864  -15.57029
       H    -9.29858   11.50812  -12.74668
       O    -9.88481   12.22847  -12.47939
      H1    -9.32798   12.99982  -12.47357

