60
frame 1 | Written by MDAnalysis XYZWriter (release 2.4.3)
       H   -10.92307   10.50888   -2.11745
       O   -11.57612   10.36012   -2.83337
      H1   -11.99996    9.54929   -2.55451
       H   -11.41345    7.26544   -4.86177
       O   -11.58493    6.53030   -4.28503
      H1   -12.20519    6.89378   -3.62863
       H   -12.26179    6.19424   -1.13826
       O   -12.40165    5.31173   -0.78984
      H1   -11.60109    4.82747   -1.09831
       H   -12.46476    2.77602   -6.20117
       O   -12.24423    3.66025   -5.87405
      H1   -11.69882    3.44838   -5.10033
       H    -9.89353    4.30705   -2.47254
       O   -10.18041    3.88156   -1.62839
      H1    -9.68965    4.42855   -0.98058
       H   -15.68287    6.55969   -5.77521
       O   -16.36374    6.40835   -6.43519
      H1   -17.09572    6.72135   -5.91759
       H   -12.45618    6.62876   -7.18759
       O   -13.39275    6.52530   -6.99495
      H1   -13.33144    6.24944   -6.07889
       H   -14.12382    4.88055   -3.67140
       O   -14.34487    4.75652   -4.63565
      H1   -13.47580    4.45855   -4.96635
       H   -14.01577    9.81601   -6.83033
       O   -13.24477    9.76423   -7.40211
      H1   -12.50887    9.40844   -6.84402
       H   -10.90953    4.02331   -7.15400
       O   -10.44205    3.85540   -7.99123
      H1   -11.14139    3.57626   -8.58175
       H   -10.31071    5.51023   -4.07848
       O    -9.65521    4.83938   -4.22187
      H1    -8.97806    5.29260   -4.72042
       H    -7.21953    6.55446   -5.77248
       O    -7.50331    5.65926   -5.93460
      H1    -6.95278    5.17505   -5.30018
       H   -16.03591    6.79140   -2.55722
       O   -15.15309    6.43000   -2.42255
      H1   -14.76813    6.96591   -1.71761
       H   -10.33611    8.72281   -5.80204
       O   -10.80597    8.32830   -6.55294
      H1   -10.08895    7.96070   -7.07516
       H    -9.48057   10.61155   -5.43632
       O    -9.56114    9.87379   -4.80017
      H1   -10.19526   10.18783   -4.18063
       H    -6.54885    8.22938   -6.52364
       O    -7.26766    8.25624   -5.82177
      H1    -6.72492    8.31724   -5.03898
       H   -12.26028    8.27337   -1.05982
       O   -12.04778    7.84949   -1.90858
      H1   -11.13525    8.04429   -2.12162
       H   -14.67388    3.98482   -8.44359
       O   -13.72503    4.04254   -8.22402
      H1   -13.75031    4.81211   -7.63031
       H    -8.51972    6.83340   -2.50957
       O    -9.00311    7.65731   -2.68147
      H1    -8.84053    7.89266   -3.59432
       H   -10.21403    5.70675   -8.38367
       O   -10.02295    6.66206   -8.59848
      H1   -10.69872    6.85894   -9.27086

