60
frame 0 | Written by MDAnalysis XYZWriter (release 2.4.3)
       H    -1.54113    4.40021    4.84241
       O    -2.47418    4.66241    4.89251
      H1    -2.40252    5.60084    4.67361
       H    -7.26721    9.51946    3.12771
       O    -6.52274    9.38042    2.58810
      H1    -6.89138    8.93205    1.84569
       H    -4.38302    6.14736    0.02013
       O    -4.83078    5.52692   -0.56982
      H1    -5.07197    4.82711    0.03021
       H    -8.77557    7.51065    2.96441
       O    -8.60467    7.13305    3.81736
      H1    -7.77715    6.68246    3.77678
       H    -1.31997    7.54466    6.35966
       O    -0.39107    7.50731    6.08905
      H1    -0.40143    8.06721    5.30346
       H    -6.82850    8.62859    5.90251
       O    -7.61598    8.98785    5.51026
      H1    -7.85443    8.26977    4.89737
       H    -5.77652    2.62708    4.25091
       O    -5.47416    3.46958    3.93224
      H1    -4.69584    3.59606    4.49218
       H    -8.16643    5.75583    7.40971
       O    -7.54043    5.69452    6.67618
      H1    -7.55379    6.59833    6.27748
       H    -2.02340    4.75882    6.59185
       O    -2.14609    4.30747    7.44641
      H1    -1.74239    3.44501    7.29498
       H    -3.27461    6.18852    7.65490
       O    -2.76391    6.98655    7.50969
      H1    -2.74530    7.52418    8.30106
       H    -2.20387    2.72805    2.81861
       O    -2.86461    3.21617    2.28377
      H1    -3.01863    3.97837    2.88769
       H    -5.82497    5.00001    7.30606
       O    -4.99458    4.96160    7.78582
      H1    -4.45010    4.34845    7.25750
       H    -5.62213    7.69330    3.33119
       O    -5.25333    7.01348    3.87702
      H1    -4.31043    7.04445    3.65918
       H    -4.80720    7.77076    6.83728
       O    -5.53399    8.30055    7.17922
      H1    -5.04428    8.98710    7.62578
       H    -2.36841    7.08765    2.64801
       O    -2.32936    7.40833    3.51910
      H1    -2.51912    8.34771    3.45531
       H    -2.54115    7.71244    0.97429
       O    -2.91698    6.85734    0.78922
      H1    -2.15520    6.37940    0.46029
       H    -6.76948    6.54056    1.01554
       O    -6.75935    7.46734    0.74507
      H1    -6.39461    7.42042   -0.13080
       H    -3.02929   10.15556    1.66643
       O    -2.50602    9.37246    1.44387
      H1    -1.64318    9.76139    1.19074
       H    -3.22252   11.40030    2.78010
       O    -4.02125   11.56202    2.23932
      H1    -4.70652   11.36995    2.86908
       H    -5.97744    5.73889    2.96187
       O    -6.70510    5.41646    2.38171
      H1    -6.50747    4.47595    2.25931

