60
frame 0 | Written by MDAnalysis XYZWriter (release 2.4.3)
       H     6.90045   -8.26934   -1.15856
       O     6.57369   -8.32470   -0.27496
      H1     7.23711   -7.83068    0.24135
       H     5.71582   -7.79747   -8.23510
       O     6.50787   -7.37726   -7.84047
      H1     6.12037   -6.86629   -7.08806
       H     4.66492   -2.29227   -4.13789
       O     4.08890   -3.00815   -3.84827
      H1     3.93872   -3.44913   -4.68114
       H     5.37744  -10.44640   -5.16560
       O     5.98417   -9.82918   -4.72073
      H1     6.04302  -10.15547   -3.81244
       H    10.14777   -7.07236   -3.53660
       O     9.66806   -7.77136   -3.06202
      H1    10.26841   -8.54833   -3.13247
       H     3.60016   -5.28572   -1.63750
       O     4.37149   -5.17209   -2.21049
      H1     4.13759   -4.44932   -2.81193
       H     3.69528   -8.23188   -7.28310
       O     3.89126   -7.92837   -8.18738
      H1     3.80468   -6.97017   -8.16290
       H     4.52314   -4.34866   -7.58836
       O     3.90791   -4.86832   -8.12371
      H1     3.28559   -5.15184   -7.46214
       H     7.38007   -5.83681   -1.77386
       O     7.01965   -5.11512   -1.23770
      H1     6.05229   -5.30541   -1.27239
       H     7.81114   -8.19732   -7.03928
       O     8.64533   -8.64460   -6.88852
      H1     8.38492   -9.45785   -6.35620
       H     5.69512   -1.82016   -5.46368
       O     6.15389   -1.47182   -4.68716
      H1     5.89526   -0.55977   -4.67924
       H     6.57700   -5.73744   -8.99140
       O     7.17278   -5.02090   -9.18573
      H1     6.82005   -4.79543  -10.07407
       H     6.81473   -3.65994   -7.67541
       O     6.07141   -3.48869   -7.07334
      H1     6.11620   -4.10333   -6.31272
       H     6.42571   -8.14320   -3.41141
       O     7.06763   -7.58752   -2.90537
      H1     7.91878   -7.88176   -3.23119
       H     7.35794   -5.74835   -5.57559
       O     6.39682   -5.79919   -5.58868
      H1     6.17740   -6.01144   -4.66995
       H     7.73592   -9.98058   -4.60788
       O     8.67315  -10.29839   -4.57422
      H1     8.63296  -11.24716   -4.65814
       H     7.65177   -3.68545   -2.25524
       O     8.18632   -2.95375   -2.51063
      H1     8.96945   -3.35001   -2.89684
       H     4.04591   -6.68021   -3.29639
       O     4.06608   -7.09222   -4.19303
      H1     3.56284   -7.93126   -4.09340
       H     1.96914   -4.55651   -5.72481
       O     2.88165   -4.72200   -5.48592
      H1     2.81158   -5.64947   -5.20012
       H     9.77562   -5.34648   -6.30094
       O     9.24617   -5.54358   -5.50511
      H1     9.33213   -4.69458   -5.06400

