60
frame 0 | Written by MDAnalysis XYZWriter (release 2.4.3)
       H    13.89967   17.30597   -0.68572
       O    13.64736   16.36923   -0.53361
      H1    13.12282   16.40847    0.27978
       H     7.17096   17.76728    4.75541
       O     7.58837   17.36032    3.97744
      H1     8.08153   16.63369    4.37880
       H     9.27606   12.54088   -2.04150
       O     8.30606   12.62801   -2.17280
      H1     8.09607   13.45309   -1.72861
       H    10.64370   18.34854    0.86120
       O    11.53224   18.17461    0.58957
      H1    11.38458   17.59694   -0.18530
       H    10.77464   16.31827   -2.42693
       O    11.11101   16.38168   -1.55424
      H1    12.06747   16.22958   -1.74442
       H     5.37496   15.03402   -1.62485
       O     5.45504   15.79123   -2.21895
      H1     5.45806   16.54271   -1.59188
       H     7.40684   15.52335    1.93340
       O     6.49957   15.63194    2.26280
      H1     6.61891   16.38734    2.81685
       H    10.31755   16.97076    3.89808
       O    10.65479   17.62640    3.28040
      H1    11.45448   17.24646    2.93385
       H     8.59238   19.03693   -0.60115
       O     8.19882   18.38239   -1.21182
      H1     8.55490   18.73226   -2.03366
       H     8.57866   15.75750   -0.79334
       O     8.16677   15.35650   -1.56682
      H1     7.29617   15.75773   -1.66804
       H     6.05309   16.58659    0.57292
       O     5.76330   17.37749    0.05781
      H1     6.55663   17.86374   -0.13689
       H    15.23028   19.00176   -2.03582
       O    14.51039   19.05538   -1.40364
      H1    13.70749   18.93441   -1.93648
       H     9.48706   16.53479    1.61789
       O     9.27371   15.94869    0.89882
      H1    10.12279   15.54532    0.65824
       H    12.17079   18.22469   -4.23640
       O    11.35674   18.76110   -4.32364
      H1    10.66503   18.10771   -4.43380
       H     6.52557   17.66617   -4.83024
       O     6.11446   18.55610   -4.78111
      H1     6.41449   19.07103   -5.53352
       H     5.46346   19.24006    3.87286
       O     4.62327   19.11613    3.34717
      H1     4.12993   18.47237    3.84160
       H     7.69310   15.62299   -4.71368
       O     7.00505   16.05874   -5.23469
      H1     6.28741   15.37991   -5.20310
       H     8.97340   15.55895   -3.15642
       O     9.39143   15.91746   -3.94320
      H1     9.77840   15.16326   -4.40634
       H     3.86637   18.15514    0.06580
       O     3.18031   18.74557   -0.29563
      H1     3.43378   18.83870   -1.21206
       H    12.49391   14.40199    1.11913
       O    11.58456   14.41300    0.82750
      H1    11.48246   13.73757    0.14794

