60
frame 0 | Written by MDAnalysis XYZWriter (release 2.4.3)
       H     9.27606   12.54088   -2.04150
       O     8.30606   12.62801   -2.17280
      H1     8.09607   13.45309   -1.72861
       H     8.35040   17.94056   -7.45705
       O     8.75867   17.12749   -7.17925
      H1     8.39683   16.84415   -6.33091
       H    11.28352   14.78591   -6.17988
       O    11.47872   15.71370   -6.24823
      H1    10.81197   16.02671   -6.86047
       H    10.77464   16.31827   -2.42693
       O    11.11101   16.38168   -1.55424
      H1    12.06747   16.22958   -1.74442
       H    12.56827   13.42704   -4.67677
       O    12.14277   13.94596   -3.97818
      H1    12.76517   14.62728   -3.81636
       H     8.39712   12.65014   -8.71589
       O     8.57432   13.32257   -8.08251
      H1     7.87051   13.97657   -8.19771
       H     8.59238   19.03693   -0.60115
       O     8.19882   18.38239   -1.21182
      H1     8.55490   18.73226   -2.03366
       H     8.57866   15.75750   -0.79334
       O     8.16677   15.35650   -1.56682
      H1     7.29617   15.75773   -1.66804
       H     5.74642   13.48173   -5.89403
       O     5.22679   14.18923   -5.50434
      H1     4.87543   14.64936   -6.26745
       H    11.77758   11.34672   -6.27601
       O    12.39756   11.95161   -5.85182
      H1    13.01471   12.12335   -6.59097
       H    11.18395   13.63911   -2.20004
       O    10.93689   12.83995   -1.67115
      H1    11.59098   12.19388   -1.96296
       H    13.85671   16.50130   -4.43937
       O    12.97159   16.66113   -4.10931
      H1    12.39943   16.32779   -4.82652
       H    12.17079   18.22469   -4.23640
       O    11.35674   18.76110   -4.32364
      H1    10.66503   18.10771   -4.43380
       H     6.52557   17.66617   -4.83024
       O     6.11446   18.55610   -4.78111
      H1     6.41449   19.07103   -5.53352
       H    10.49538   12.41892   -5.69148
       O     9.83853   13.13910   -5.68645
      H1     9.39725   13.08193   -6.53214
       H     7.00636   12.58521   -7.18181
       O     6.37789   11.94258   -6.84827
      H1     6.59899   11.94407   -5.90456
       H     7.69310   15.62299   -4.71368
       O     7.00505   16.05874   -5.23469
      H1     6.28741   15.37991   -5.20310
       H     7.02286   12.23894   -3.58010
       O     6.66358   11.50971   -4.04294
      H1     5.77452   11.41874   -3.68878
       H     8.97340   15.55895   -3.15642
       O     9.39143   15.91746   -3.94320
      H1     9.77840   15.16326   -4.40634
       H     9.12746   11.26756   -4.17923
       O     9.80868   10.59144   -4.24284
      H1     9.28909    9.75813   -4.20269

