60
frame 0 | Written by MDAnalysis XYZWriter (release 2.4.3)
       H    18.74296  -16.48917   -2.83577
       O    17.86268  -16.35236   -2.42958
      H1    17.23580  -16.62563   -3.11247
       H    14.14120  -17.38453    1.92484
       O    14.97313  -17.62039    1.45093
      H1    14.59510  -17.94054    0.61380
       H    17.95846  -17.48063    2.63280
       O    17.80683  -17.25101    1.73197
      H1    16.84217  -17.41353    1.71000
       H    15.38326  -13.69795    6.65044
       O    16.09674  -13.34104    6.12630
      H1    15.88047  -13.58560    5.22215
       H    12.25522  -15.89224   -0.65570
       O    12.55487  -15.55076    0.18964
      H1    13.48110  -15.35059    0.04205
       H    15.00531  -12.99905   -2.50846
       O    15.06641  -12.22097   -1.94050
      H1    14.67891  -12.52498   -1.09431
       H    14.80645  -15.67842   -0.97194
       O    15.23878  -15.19319   -0.24980
      H1    15.41255  -15.86245    0.40792
       H    18.33678  -17.71812   -1.05272
       O    18.79632  -18.53733   -0.87358
      H1    18.66539  -18.54181    0.07159
       H    19.12903  -14.29735    1.81406
       O    18.90167  -14.79384    1.01884
      H1    18.26511  -15.47432    1.34964
       H    14.22306  -17.30501   -2.32635
       O    14.07772  -16.39861   -2.67750
      H1    14.90760  -16.20918   -3.14720
       H    17.41472  -14.38507    3.66940
       O    16.59232  -14.20632    3.23183
      H1    16.83674  -13.56013    2.57628
       H    17.89670  -11.94173   -4.00726
       O    16.95266  -11.78955   -4.07792
      H1    16.63657  -11.68076   -3.17275
       H    16.99250   -9.35357    1.32034
       O    17.46715  -10.15275    1.60031
      H1    18.36353   -9.88304    1.85663
       H    16.94131  -13.74743   -0.94912
       O    17.60163  -13.83657   -1.66022
      H1    17.72870  -14.78823   -1.71226
       H    17.63519  -13.04397    0.99200
       O    16.75442  -12.68707    1.11317
      H1    16.92980  -11.72988    1.19163
       H    16.27499  -14.34548   -2.77401
       O    15.87686  -14.46665   -3.64840
      H1    16.31374  -13.70944   -4.11033
       H    17.43023  -18.33491    4.94692
       O    18.08373  -17.85262    4.41992
      H1    18.74143  -18.51090    4.10738
       H    13.43230  -15.17996    3.24233
       O    14.14918  -15.76122    3.55463
      H1    14.99646  -15.29195    3.35325
       H    15.24513  -12.17122    2.43546
       O    14.39851  -11.72876    2.53568
      H1    13.90883  -12.02041    1.75385
       H    18.57328  -15.09274    5.85000
       O    18.56732  -15.16296    4.88975
      H1    18.40008  -16.08530    4.72175

