60
frame 0 | Written by MDAnalysis XYZWriter (release 2.4.3)
       H     5.58110   11.40431  -11.81458
       O     4.88195   12.03274  -11.98186
      H1     4.38945   11.53743  -12.63691
       H     3.16044    9.83766  -16.63495
       O     3.56594   10.69863  -16.49515
      H1     3.06046   11.32631  -17.03538
       H     0.43986   12.30859  -15.87641
       O     0.08672   12.71635  -16.69481
      H1    -0.60899   12.09417  -16.99906
       H     3.20178   14.31356  -13.38631
       O     3.10255   13.89815  -14.24245
      H1     4.03840   13.81177  -14.46107
       H    -0.93329   12.70872  -12.36607
       O    -1.23767   12.33344  -13.17187
      H1    -1.49449   13.07428  -13.78525
       H     1.47660   12.61332  -17.96044
       O     2.06906   12.22172  -18.60667
      H1     2.92925   12.65189  -18.45833
       H     0.24650   13.36094  -10.71527
       O     0.22302   12.42995  -10.80905
      H1     1.16194   12.26528  -10.76666
       H     3.70344   15.56958  -11.54417
       O     3.23784   14.70411  -11.58294
      H1     3.89835   14.05428  -11.24201
       H     3.66330   11.48559  -10.31430
       O     2.80300   11.44639   -9.87304
      H1     2.52026   10.53582   -9.83328
       H     1.79113   12.51575  -14.26273
       O     1.10097   11.86494  -14.28482
      H1     0.40410   12.23084  -13.72524
       H     1.44854    7.94067  -14.34934
       O     2.04321    7.18851  -14.51289
      H1     1.69921    6.76340  -15.30947
       H     1.51856   15.10247  -10.92011
       O     0.63284   15.33071  -10.66184
      H1     0.32445   15.81849  -11.40141
       H    -2.27431   10.94006  -12.94514
       O    -2.79404   10.28522  -13.38825
      H1    -3.70041   10.64255  -13.47677
       H     1.06739   10.19127  -13.43132
       O     1.30260    9.34850  -13.07316
      H1     0.48070    9.05220  -12.67698
       H    -2.08411   15.30099  -14.00754
       O    -2.07332   14.53644  -14.61253
      H1    -1.80813   14.93671  -15.43293
       H    -1.50809   15.14199  -17.81649
       O    -1.02637   15.31873  -17.00726
      H1    -0.68897   14.44583  -16.67980
       H    -2.43084   11.77415  -16.19064
       O    -2.12637   10.85100  -16.06876
      H1    -2.17192   10.75010  -15.11104
       H    -1.98898    8.24692  -12.15003
       O    -1.05216    8.23049  -12.24366
      H1    -0.84148    7.30522  -12.48547
       H     4.43422   15.85011  -15.85158
       O     3.51180   16.18150  -15.96469
      H1     2.98098   15.63108  -15.35142
       H     2.99488    9.72380  -13.74707
       O     3.87522   10.09822  -13.88764
      H1     3.78185   10.51292  -14.74914

