60
frame 0 | Written by MDAnalysis XYZWriter (release 2.4.3)
       H    11.13820   -0.71275   16.87270
       O    11.73976   -0.73404   17.62085
      H1    12.15799    0.11409   17.65477
       H    16.04377   -4.36545   17.80112
       O    16.45898   -5.02022   17.20031
      H1    16.81632   -4.45626   16.49877
       H    13.75372    1.31299   16.02099
       O    14.70490    1.44287   16.01075
      H1    14.81501    2.24692   15.46698
       H    19.52182    6.50676   18.67607
       O    18.56850    6.39657   18.50037
      H1    18.13846    6.71534   19.28116
       H    19.66205    1.44157   14.85896
       O    19.06223    1.43245   15.60739
      H1    18.23482    1.80176   15.25201
       H    15.70080    3.27295   13.45241
       O    15.09706    3.31702   14.17281
      H1    15.59236    3.93476   14.73145
       H    17.59645   -1.94282   14.99507
       O    17.81608   -2.85579   15.25040
      H1    18.57781   -3.07079   14.69596
       H    18.52675   -0.55280   11.32269
       O    17.59900   -0.60469   11.59048
      H1    17.42105   -1.55258   11.57476
       H    17.15768   -0.30172   18.00584
       O    16.24823   -0.67319   17.82629
      H1    15.97827   -0.13828   17.08720
       H    14.92135    0.28317   18.83540
       O    14.63665    1.16927   19.11940
      H1    14.86853    1.73522   18.36754
       H    15.94652   -0.27766   14.16000
       O    16.91160   -0.29082   14.31215
      H1    17.22013   -0.51414   13.40846
       H    11.92891   -3.38685   17.67725
       O    12.58909   -4.00708   17.30797
      H1    13.42139   -3.54501   17.49929
       H    14.82771   -2.98376   19.46949
       O    14.91000   -3.00643   18.49406
      H1    15.27798   -2.16278   18.26229
       H    18.88835    0.84727   17.27790
       O    18.61174    0.87951   18.22563
      H1    19.19547    0.21600   18.68195
       H    13.97301    4.77491   18.20856
       O    14.42905    3.95401   18.05306
      H1    15.25086    4.09273   18.51062
       H    15.89680    4.17909   16.86572
       O    16.29339    4.62541   16.09453
      H1    15.94679    5.51717   16.23601
       H    17.30971    2.91668   11.35414
       O    16.44106    2.68661   11.73801
      H1    16.59777    1.81750   12.18219
       H    18.49593    7.85417   17.23421
       O    18.04262    8.64333   16.88499
      H1    17.53938    8.25531   16.14037
       H    13.52030   -0.62385   13.68377
       O    14.19368    0.08120   13.72725
      H1    14.10464    0.45108   14.62393
       H    17.87966    4.01800   18.60287
       O    17.25346    3.30203   18.63896
      H1    17.83294    2.52558   18.56387

