60
frame 0 | Written by MDAnalysis XYZWriter (release 2.4.3)
       H    18.90252    3.85420   -5.95838
       O    18.98638    4.75348   -6.27372
      H1    19.07952    5.26006   -5.47756
       H    18.72466    9.80762   -0.54069
       O    18.99047    9.17555   -1.21971
      H1    18.55201    9.51908   -2.01248
       H    19.19441    6.37965   -3.62778
       O    19.09693    6.94930   -4.41118
      H1    18.13441    6.93864   -4.52929
       H    18.61490    1.89312   -4.39918
       O    18.25227    2.49742   -5.03401
      H1    17.35018    2.22210   -5.18051
       H    16.46556    6.36140   -7.65634
       O    17.35052    6.59889   -7.83456
      H1    17.79447    6.09996   -7.19703
       H    17.65254    6.79369    0.51964
       O    17.69502    6.76458   -0.43849
      H1    17.92809    7.64859   -0.65008
       H    16.51332    8.92156   -5.52404
       O    16.95422    9.79559   -5.60230
      H1    17.55285    9.65061   -6.35928
       H    17.55470   10.41466   -3.84949
       O    17.87412   10.83389   -3.03409
      H1    18.38492   11.63522   -3.26565
       H    15.06055    5.88960   -8.87925
       O    14.65504    6.27743   -8.08689
      H1    13.97829    5.63897   -7.84236
       H    15.34787    4.68681   -6.15004
       O    15.02989    4.97113   -5.26809
      H1    15.63514    4.57288   -4.67019
       H    15.36339    9.56599   -8.38063
       O    16.04313   10.09522   -8.82491
      H1    16.83596    9.98250   -8.28288
       H    17.39897    3.79460   -3.99794
       O    16.80718    4.08642   -3.31424
      H1    16.65038    3.33662   -2.75328
       H    15.60861    9.02238   -2.10863
       O    15.77051    8.13817   -2.47243
      H1    16.12024    7.62216   -1.72354
       H    18.91997    6.38017  -10.73552
       O    17.97991    6.56368  -10.49977
      H1    17.93470    6.59641   -9.52924
       H    18.28008    5.07805   -2.24743
       O    19.17021    5.34750   -2.15430
      H1    19.09825    5.97769   -1.40352
       H    15.34531   11.09683   -4.76671
       O    15.13149   12.02985   -4.90565
      H1    15.01420   12.38028   -3.98629
       H    16.20704    7.81803   -4.02339
       O    16.23385    7.35255   -4.89247
      H1    15.53787    6.68100   -4.82803
       H    18.14259    8.40260   -7.88679
       O    18.47413    9.31994   -7.85916
      H1    19.42124    9.18933   -7.79725
       H    13.75831    4.15171   -1.28238
       O    14.15681    4.96943   -1.62819
      H1    15.06914    4.74057   -1.62955
       H    13.60692    7.68590   -2.82887
       O    12.82603    7.10367   -2.73803
      H1    13.17347    6.32094   -2.31186

