60
frame 0 | Written by MDAnalysis XYZWriter (release 2.4.3)
       H    -9.37303   -0.07404    9.21462
       O    -9.77869   -0.23696    8.37436
      H1   -10.54931    0.36112    8.49498
       H    -6.39967   -0.64320    9.06122
       O    -6.15511   -0.17128    9.86163
      H1    -6.21786   -0.84929   10.52780
       H    -5.62218   -2.62697   12.69524
       O    -6.00141   -1.96502   12.10252
      H1    -6.82140   -2.34509   11.76767
       H    -4.72365   -6.75966   11.56401
       O    -5.38714   -6.35815   12.16122
      H1    -6.24634   -6.39901   11.72028
       H   -11.74652   -2.88758   12.23777
       O   -11.40291   -2.24100   11.63460
      H1   -11.89820   -2.38788   10.81571
       H    -8.59060   -2.63667   10.03693
       O    -8.60055   -2.53774   11.02040
      H1    -9.52742   -2.41755   11.23404
       H   -12.51912   -0.66723   12.17408
       O   -13.14087    0.02984   11.92181
      H1   -13.27570    0.56070   12.72856
       H    -7.52303   -1.22146   13.30835
       O    -8.40724   -0.94533   13.57929
      H1    -8.25749   -0.53563   14.42636
       H    -6.87889   -1.37448    6.09898
       O    -7.37303   -1.19646    6.93894
      H1    -7.90243   -2.01079    7.06156
       H    -4.57618   -0.40259   10.25951
       O    -3.69684   -0.78047   10.05963
      H1    -3.43486   -1.18550   10.89544
       H    -5.05836   -2.89466    8.85965
       O    -5.30819   -3.61473    9.42338
      H1    -5.76364   -4.24526    8.87822
       H    -7.68048   -5.24642    9.69533
       O    -8.25680   -5.39191   10.44905
      H1    -8.33204   -4.53841   10.91388
       H    -8.87813   -0.19925   11.65180
       O    -8.63555    0.56430   11.07323
      H1    -7.72413    0.37444   10.75895
       H   -11.09964   -5.96090   11.01559
       O   -10.94331   -5.71760   10.07815
      H1   -10.01742   -5.92761    9.93211
       H    -8.92963   -2.32360   15.20884
       O    -9.30779   -2.36037   16.08532
      H1    -9.86268   -3.18783   16.09010
       H   -12.03669   -4.05548    9.82375
       O   -12.58681   -3.43615    9.34043
      H1   -13.47233   -3.82210    9.35385
       H    -7.52374    2.55320   13.40716
       O    -8.27068    1.94444   13.57240
      H1    -8.35178    1.42584   12.78028
       H    -7.60076   -5.92983    7.88811
       O    -6.81919   -5.38441    7.98211
      H1    -6.77745   -5.02184    7.05193
       H    -9.89198   -2.06634    8.05827
       O    -9.42911   -2.89026    7.94662
      H1   -10.11729   -3.46620    7.60587
       H    -8.24886   -7.20365   10.72689
       O    -8.22118   -8.03233   11.19308
      H1    -8.45571   -8.71926   10.58035

