60
frame 0 | Written by MDAnalysis XYZWriter (release 2.4.3)
       H   -13.93701  -14.19407   -5.16903
       O   -13.68010  -14.25021   -6.09786
      H1   -13.85026  -13.36760   -6.47584
       H   -18.24042  -13.61601   -4.03457
       O   -18.51306  -12.72559   -3.74876
      H1   -17.72976  -12.20755   -3.89234
       H   -11.27817  -12.35083   -6.16914
       O   -10.52473  -12.24412   -5.58361
      H1    -9.90660  -11.75294   -6.14790
       H   -15.68811   -8.03135   -9.38224
       O   -16.34891   -8.71833   -9.50168
      H1   -15.77019   -9.46469   -9.78407
       H   -18.97327  -13.43458  -10.49434
       O   -18.35164  -12.82306  -10.09358
      H1   -17.82749  -13.40957   -9.51427
       H   -14.48505  -10.90197  -11.21481
       O   -15.29898  -11.03166  -10.68239
      H1   -16.00034  -10.85602  -11.30493
       H   -15.24612  -11.37331   -3.01945
       O   -15.90957  -11.75246   -3.59218
      H1   -15.75477  -11.40448   -4.45490
       H   -17.33903   -9.24818   -7.96406
       O   -17.65467   -9.38706   -7.07086
      H1   -17.46841   -8.51417   -6.68029
       H   -15.15411   -7.98289   -6.44429
       O   -15.07955   -8.29804   -5.53543
      H1   -15.38968   -9.18733   -5.56755
       H   -16.10254  -12.50744   -6.33713
       O   -15.95182  -11.57040   -6.34310
      H1   -16.73959  -11.17631   -6.76624
       H   -17.57085  -15.26138   -8.78427
       O   -16.99645  -14.48406   -8.62586
      H1   -16.36111  -14.51564   -9.36466
       H   -13.89422  -11.19448   -6.78073
       O   -12.92381  -11.20294   -6.79215
      H1   -12.75180  -11.07546   -7.73170
       H   -13.08285  -11.46433   -2.70452
       O   -13.67340  -10.83410   -2.28531
      H1   -13.07962  -10.05402   -2.18130
       H   -17.81444  -12.61492   -2.10247
       O   -17.68650  -12.79450   -1.13978
      H1   -18.56530  -13.16653   -0.93306
       H   -14.89647  -15.63205   -6.39948
       O   -15.39336  -16.44728   -6.22234
      H1   -15.28188  -16.97109   -7.05620
       H   -12.09952  -14.80495   -6.82515
       O   -11.30263  -15.17231   -7.24249
      H1   -10.70012  -15.22569   -6.45065
       H   -14.86397  -14.23561   -3.52215
       O   -13.93277  -14.15790   -3.37144
      H1   -13.59670  -15.04830   -3.16346
       H   -17.69736  -14.61171   -6.86273
       O   -17.50082  -14.66987   -5.92497
      H1   -17.02307  -15.50297   -5.83110
       H   -17.90755   -9.65845   -5.25494
       O   -17.77835   -9.30327   -4.35670
      H1   -18.26927   -8.45468   -4.34874
       H   -15.95470  -13.03947  -11.35138
       O   -15.44787  -13.84595  -11.28232
      H1   -15.13154  -13.95332  -12.18525

