60
frame 0 | Written by MDAnalysis XYZWriter (release 2.4.3)
       H     0.54494  -17.82400   -8.42088
       O    -0.11928  -18.35262   -8.89869
      H1    -0.89306  -18.30763   -8.32751
       H     7.39364  -16.73667   -6.51130
       O     6.67811  -17.16091   -6.05955
      H1     6.50937  -16.52601   -5.35379
       H     6.33568  -17.65104   -0.61269
       O     6.47468  -17.09231   -1.34072
      H1     7.15747  -17.56495   -1.86646
       H    -3.49587  -16.73746   -5.23391
       O    -2.76489  -17.25320   -4.91962
      H1    -2.62011  -17.90469   -5.63741
       H     3.97226  -13.37243   -4.46533
       O     3.26437  -14.05523   -4.38689
      H1     3.19365  -14.24885   -3.43354
       H     4.89281  -16.41224   -3.95488
       O     5.59210  -15.79766   -3.76280
      H1     6.10706  -16.34445   -3.16120
       H     1.55566  -16.64681   -6.40083
       O     1.49838  -16.98317   -7.29024
      H1     1.66121  -16.16949   -7.80943
       H    -0.40277  -14.93891   -6.15682
       O    -0.92655  -14.67793   -6.93955
      H1    -1.82476  -14.49454   -6.57703
       H     0.32263  -16.34504   -1.71084
       O    -0.35121  -17.02042   -1.53724
      H1     0.15874  -17.82843   -1.54254
       H     2.99777  -17.81426   -6.07278
       O     2.81761  -18.43289   -5.33518
      H1     2.82873  -19.33687   -5.73911
       H     4.14085  -16.74327    1.11666
       O     3.71209  -16.62995    0.22293
      H1     3.30684  -17.50320    0.12579
       H     1.26245  -14.27943   -8.79171
       O     2.05648  -14.85374   -8.76101
      H1     2.25842  -14.88737   -9.74072
       H     4.70453  -13.24353   -8.30458
       O     4.68887  -14.21842   -8.24596
      H1     3.76689  -14.44607   -8.41767
       H     4.40972  -15.22213   -1.21526
       O     4.46105  -14.42423   -1.74879
      H1     4.92791  -14.70900   -2.56375
       H     1.67358  -15.15846   -4.62255
       O     0.79969  -15.32582   -5.00950
      H1     0.30118  -15.67289   -4.27218
       H     4.79536  -17.28508   -8.57129
       O     4.60955  -17.59365   -7.66656
      H1     5.36015  -17.26358   -7.16379
       H     7.78138  -18.58832   -4.24331
       O     8.36226  -18.18612   -3.57154
      H1     8.87714  -17.54131   -4.12114
       H     2.56665  -15.30992   -2.11541
       O     1.61084  -15.10747   -2.05161
      H1     1.62283  -14.21792   -1.67587
       H     7.06170  -18.03037   -8.89662
       O     7.91177  -18.48485   -8.88570
      H1     8.55189  -17.76117   -8.91739
       H     4.78377  -18.02552   -2.82695
       O     3.82436  -17.95063   -2.99168
      H1     3.66344  -18.41169   -3.82397

