60
frame 1 | Written by MDAnalysis XYZWriter (release 2.4.3)
       H    -3.40885    0.45514   -5.29618
       O    -4.25503   -0.02466   -5.29597
      H1    -4.92976    0.64623   -5.39459
       H     0.39540   -4.77312   -8.63124
       O    -0.53913   -4.75711   -8.88397
      H1    -0.94929   -4.69769   -8.00233
       H    -2.01980    1.06926   -4.41560
       O    -1.75997    0.82372   -5.32714
      H1    -1.32810   -0.01755   -5.14949
       H    -1.05506   -1.31607   -3.80875
       O    -0.92501   -1.64915   -4.72852
      H1    -0.00034   -1.38909   -4.98748
       H     2.32454   -5.13573   -7.48641
       O     2.10599   -4.99012   -8.41927
      H1     2.28058   -4.02702   -8.49066
       H     2.55527    3.08140   -8.70638
       O     1.87852    2.37545   -8.63324
      H1     2.14045    1.72141   -9.28498
       H    -0.32039    1.78999   -5.83181
       O     0.58042    2.11812   -6.02857
      H1     0.59397    2.27156   -6.98031
       H    -4.48846    0.93697   -9.08431
       O    -3.96594    0.17339   -9.38425
      H1    -3.49885   -0.16197   -8.60210
       H    -1.36191   -3.65234   -5.55431
       O    -1.58004   -4.15640   -6.34727
      H1    -1.99036   -4.94468   -5.95370
       H     1.83884   -1.58746   -8.42115
       O     2.31109   -2.27300   -8.91406
      H1     1.93828   -2.17150   -9.81518
       H    -3.44444   -2.67671   -8.86153
       O    -4.10184   -3.21036   -8.38317
      H1    -3.89610   -4.08038   -8.78491
       H    -1.12943   -3.67685  -10.65340
       O    -1.35764   -3.10333  -11.42051
      H1    -2.16828   -3.46111  -11.81738
       H     0.98763   -0.40491   -6.59708
       O     1.38716   -0.49434   -5.70492
      H1     1.41499    0.45044   -5.39379
       H    -1.70853    1.55465   -9.87767
       O    -1.16795    1.76181   -9.08870
      H1    -0.53426    2.38800   -9.46225
       H     1.99467   -2.33626  -11.93416
       O     1.46821   -2.92388  -11.41148
      H1     0.57153   -2.54194  -11.36603
       H    -3.03789    1.45933  -12.29163
       O    -2.57908    1.17682  -11.46742
      H1    -3.26977    0.69303  -11.00801
       H    -2.85712   -0.30540   -6.71448
       O    -2.42697   -0.93023   -7.33942
      H1    -2.59591   -1.79669   -6.97643
       H     1.48717   -3.47262   -5.63197
       O     1.90689   -4.32844   -5.59072
      H1     2.67561   -4.15439   -5.06916
       H    -1.92765    3.96235   -7.12035
       O    -2.54953    3.68894   -7.79710
      H1    -2.06199    2.95398   -8.19036
       H     0.05110    0.36202   -8.72529
       O     0.22806   -0.45596   -8.22965
      H1    -0.61319   -0.68094   -7.78903

