60
frame 1 | Written by MDAnalysis XYZWriter (release 2.4.3)
       H    12.89310    3.59234   -6.04233
       O    12.17900    4.09316   -6.41903
      H1    11.58735    4.28602   -5.64017
       H    16.31288    0.05055   -3.96781
       O    15.62604    0.70683   -4.11109
      H1    14.89894    0.37166   -3.51822
       H     7.62262    2.33572   -4.48562
       O     7.15480    1.50527   -4.73282
      H1     6.68016    1.20469   -3.93793
       H     8.36863    2.15762    0.78661
       O     9.03181    2.28122    0.12606
      H1     9.83237    1.93522    0.52211
       H     7.85653    6.92761   -3.49632
       O     8.83439    6.84356   -3.50029
      H1     9.16845    7.59050   -2.97258
       H     9.87618    2.48172   -4.71033
       O     9.95002    2.55932   -5.65669
      H1    10.78986    2.16602   -5.86010
       H    14.65438    6.00123   -4.46688
       O    15.21068    5.29713   -4.82101
      H1    15.12069    5.47672   -5.74729
       H     8.36276    2.68864   -2.96627
       O     7.96986    3.43230   -3.42232
      H1     7.15247    3.59341   -2.94293
       H    12.80259   -0.42225   -2.82316
       O    13.14307    0.32573   -2.33664
      H1    12.58171    1.08472   -2.58656
       H    13.13066    3.64072   -2.61538
       O    12.44766    3.00835   -2.46988
      H1    11.70115    3.43524   -2.86482
       H    10.27520    5.73012   -3.48271
       O    10.97130    5.06594   -3.56544
      H1    11.70286    5.41866   -3.02095
       H    13.09930    1.48954   -5.83981
       O    12.42881    1.13688   -6.45262
      H1    12.76119    0.24422   -6.67814
       H     8.95766    4.74638   -0.65692
       O     9.79620    5.10502   -1.00841
      H1     9.74913    4.84501   -1.93791
       H    14.80374    3.97956   -0.33617
       O    15.38318    4.67270   -0.69468
      H1    15.75795    4.25342   -1.49604
       H    12.84406    3.33003   -0.58373
       O    13.25943    3.16215    0.24759
      H1    12.85137    3.78037    0.86230
       H    11.57546    1.37177    2.31884
       O    11.57124    1.49654    1.36119
      H1    12.28652    2.10383    1.22078
       H    12.96696    6.86681   -1.87007
       O    13.28642    6.01913   -2.23525
      H1    14.09245    5.87467   -1.70945
       H     7.60493    4.02651   -5.08213
       O     7.84342    4.16471   -6.03369
      H1     8.76283    3.80867   -6.08869
       H    10.01540    1.65887   -1.98814
       O     9.83326    1.47586   -2.91589
      H1     9.64526    0.53108   -2.90579
       H    14.71368    3.57045   -4.88629
       O    14.24446    2.78072   -5.13164
      H1    14.78307    2.09251   -4.72152

