60
frame 0 | Written by MDAnalysis XYZWriter (release 2.4.3)
       H     3.66094   -0.80779  -16.40448
       O     3.64223   -0.61535  -15.47557
      H1     2.79678   -0.15157  -15.37184
       H     3.54555    3.25735  -14.79692
       O     2.80899    3.88529  -14.88711
      H1     2.50824    4.01403  -13.99580
       H     2.75529    3.36639  -18.73359
       O     2.71508    4.27618  -19.03765
      H1     2.50377    4.74769  -18.19811
       H     2.18363    0.36428  -18.36046
       O     2.57140    1.23735  -18.37501
      H1     3.49568    1.05914  -18.33019
       H     1.85088    2.24920  -17.24133
       O     1.16267    2.74211  -16.74319
      H1     1.61960    3.34410  -16.16453
       H    -1.44494    4.96505  -15.14412
       O    -0.50647    4.96291  -15.41162
      H1    -0.22438    4.04500  -15.40177
       H     0.80648   -0.28254  -14.84288
       O     1.41288    0.40967  -14.58878
      H1     0.99054    1.14719  -15.02181
       H     7.07300    4.18042  -14.72603
       O     6.90998    5.09724  -14.54954
      H1     6.21589    5.34966  -15.16858
       H     5.27950   -0.45725  -12.50814
       O     4.65890    0.28270  -12.70311
      H1     4.43332    0.03067  -13.62303
       H     2.81776   -0.05263  -11.86408
       O     1.91875    0.28289  -11.93341
      H1     1.92274    0.66013  -12.80289
       H     1.44854    7.94067  -14.34934
       O     2.04321    7.18851  -14.51289
      H1     1.69921    6.76340  -15.30947
       H     2.94239    6.13530  -16.94008
       O     2.00483    5.95867  -17.01530
      H1     1.70096    6.80225  -17.38549
       H     6.09420    1.24974  -12.54574
       O     6.96080    1.66308  -12.62179
      H1     6.96586    2.31645  -11.92008
       H     6.88793    2.56868  -17.99746
       O     6.51063    1.84292  -17.46048
      H1     6.78452    1.03412  -17.93259
       H     7.35081    2.06257  -15.74201
       O     7.98536    2.31346  -15.05519
      H1     7.59326    1.90137  -14.29146
       H     0.16719    3.85377  -12.57828
       O    -0.05326    2.97910  -12.34324
      H1    -0.29760    3.00178  -11.39629
       H     4.91739    6.28689  -12.44371
       O     5.58597    5.62438  -12.18946
      H1     5.92339    5.39244  -13.05597
       H     4.04344    2.22380  -12.46142
       O     3.77652    3.13396  -12.33491
      H1     4.59802    3.61592  -12.26019
       H     3.89134    5.21327  -15.87961
       O     4.46916    5.87872  -16.29639
      H1     4.80106    5.46068  -17.09589
       H     5.07413    1.99939  -16.43761
       O     4.44832    1.82593  -15.74460
      H1     4.52616    0.84214  -15.64900

