60
frame 1 | Written by MDAnalysis XYZWriter (release 2.4.3)
       H    -3.94780    4.43872   14.21134
       O    -4.88694    4.32378   14.16240
      H1    -5.21083    5.12813   14.60117
       H    -1.72578   10.83844   17.98888
       O    -2.43421   11.34272   18.40746
      H1    -3.24298   10.83830   18.20938
       H    -4.73045    4.25854   17.78896
       O    -3.81334    4.46899   17.58853
      H1    -3.64553    5.15382   18.24221
       H    -4.44793    7.22482   19.19524
       O    -5.12749    7.56770   18.64281
      H1    -4.79168    7.46341   17.77618
       H    -3.11924    6.11642   16.41217
       O    -3.34157    7.02829   16.63270
      H1    -2.85621    7.53856   15.97261
       H    -0.26370    7.67677   13.20952
       O     0.50295    7.11709   13.35444
      H1     1.04174    7.30231   12.55232
       H    -1.81998    9.19483   14.87820
       O    -1.40255    8.35617   14.97539
      H1    -0.46778    8.55709   15.12333
       H     1.09990    6.69503   18.38597
       O     1.60398    6.20144   18.99949
      H1     2.27118    5.75481   18.48445
       H    -6.65894    1.86750   15.44044
       O    -6.58382    2.81268   15.61731
      H1    -5.78759    3.11677   15.14859
       H    -3.43395    2.63702   17.07026
       O    -2.79408    1.91513   16.95947
      H1    -3.32825    1.17847   16.59200
       H    -3.83110    6.41057   12.24950
       O    -4.74320    6.76812   12.18138
      H1    -5.01039    6.99489   13.08168
       H    -8.48291    8.47450   16.92228
       O    -8.01588    7.65138   16.69942
      H1    -7.69753    7.37160   17.56917
       H    -3.85887   10.55245   15.25542
       O    -3.10027   10.44243   14.65365
      H1    -3.46325   10.35342   13.75653
       H    -1.66279    5.42428   11.26770
       O    -2.32380    5.37055   11.98801
      H1    -2.52452    4.39161   12.05648
       H    -4.22427    8.58059   12.08642
       O    -3.71812    9.39955   11.92229
      H1    -4.33180    9.98644   11.45125
       H    -5.49567    8.14860   14.74138
       O    -5.25383    7.20844   14.69136
      H1    -4.58416    7.08996   15.35585
       H    -1.50901    5.33535   15.22960
       O    -2.20321    4.92569   14.70024
      H1    -1.96270    5.20430   13.82853
       H    -5.26683   11.44508   17.15134
       O    -4.86098   10.60509   16.90894
      H1    -5.60100    9.98098   16.86799
       H    -0.61113    7.26979   17.21004
       O    -0.52751    7.55953   18.12493
      H1    -1.04357    6.88530   18.58792
       H     0.71710    6.32782   15.68402
       O     0.04614    5.82867   16.13744
      H1     0.52845    5.05343   16.41442

