60
frame 1 | Written by MDAnalysis XYZWriter (release 2.4.3)
       H     3.47251   -4.95995    3.82580
       O     2.98715   -5.52804    3.20576
      H1     3.71022   -5.80403    2.61857
       H    10.33166   -1.46657    3.13945
       O     9.64471   -1.34001    2.45984
      H1    10.14311   -0.87591    1.79262
       H     9.69689   -3.33704    6.04545
       O     9.64469   -4.06918    5.42067
      H1    10.20775   -3.74470    4.67901
       H     3.83459   -2.13485    1.79387
       O     4.13921   -2.77293    2.45955
      H1     3.88794   -2.36215    3.28936
       H     6.48815   -5.84635    0.90394
       O     5.53651   -5.94283    0.84899
      H1     5.25559   -5.31751    0.20050
       H     6.16234   -0.57275    5.17249
       O     6.74668   -0.95170    5.82316
      H1     6.76042   -1.87063    5.54250
       H     8.53361   -6.19627    2.23829
       O     8.22865   -5.79245    1.42612
      H1     9.00997   -5.29160    1.17750
       H     8.76521   -4.17858    8.40888
       O     8.58733   -3.31042    8.01437
      H1     7.66917   -3.11039    8.22797
       H     9.30991   -7.05702    4.69144
       O     8.97609   -6.39840    4.10268
      H1     9.25445   -5.58778    4.52915
       H     7.24688   -4.32900    2.44422
       O     6.78266   -3.48941    2.59884
      H1     5.87312   -3.72479    2.48057
       H     7.75819   -3.94915    5.72992
       O     6.88713   -3.76832    5.32783
      H1     7.06511   -3.51403    4.43223
       H     2.98675   -1.59925    5.49661
       O     3.15415   -1.35113    4.60211
      H1     3.88689   -0.71250    4.65602
       H     5.73800   -5.28625    7.44365
       O     5.63658   -4.80902    8.28056
      H1     5.75365   -3.89383    7.99818
       H     7.30576   -7.39234    3.96964
       O     6.37494   -7.52934    3.71676
      H1     6.42121   -8.29540    3.10492
       H     4.96160   -4.02909    5.24873
       O     4.03063   -4.18950    5.37027
      H1     3.83680   -3.59719    6.11507
       H     8.67927   -0.59599    6.22976
       O     9.37106   -0.01233    6.62533
      H1     8.90434    0.32795    7.40753
       H     5.91914   -1.82524    9.39438
       O     5.77001   -2.05806    8.47632
      H1     5.74196   -1.20588    8.02005
       H     7.06889   -0.13682    2.85508
       O     6.20884   -0.57625    2.69755
      H1     6.35717   -1.54856    2.70289
       H     4.75245   -6.01263    5.97495
       O     5.47328   -6.60532    6.14344
      H1     5.86300   -6.65884    5.23996
       H    10.59864   -3.96988    0.46826
       O    10.41495   -4.40319    1.32283
      H1    10.00795   -3.69286    1.81881

