60
frame 0 | Written by MDAnalysis XYZWriter (release 2.4.3)
       H    -7.03818   -5.10541   15.74014
       O    -6.85096   -5.41800   14.85723
      H1    -6.05258   -4.92185   14.62208
       H    -3.76597   -2.52527   12.79516
       O    -3.11424   -1.88143   12.55357
      H1    -2.52071   -1.78882   13.31276
       H    -5.62218   -2.62697   12.69524
       O    -6.00141   -1.96502   12.10252
      H1    -6.82140   -2.34509   11.76767
       H    -6.25998   -6.93445    7.77211
       O    -5.66677   -7.69905    7.86307
      H1    -4.80759   -7.33832    8.03571
       H    -4.72365   -6.75966   11.56401
       O    -5.38714   -6.35815   12.16122
      H1    -6.24634   -6.39901   11.72028
       H    -3.32082   -3.73438   10.11992
       O    -2.51025   -4.12130    9.77167
      H1    -1.89492   -3.39314    9.61255
       H    -5.12552  -10.10549   12.22810
       O    -4.46722  -10.81187   12.28889
      H1    -4.23824  -10.91216   11.35879
       H    -4.59188   -7.38967   14.71072
       O    -5.37432   -7.80960   15.10852
      H1    -6.00805   -7.08340   15.10193
       H    -9.77299   -6.96676   13.70568
       O    -9.23714   -6.96811   14.49992
      H1    -8.46808   -6.47117   14.24348
       H    -5.05836   -2.89466    8.85965
       O    -5.30819   -3.61473    9.42338
      H1    -5.76364   -4.24526    8.87822
       H    -7.68048   -5.24642    9.69533
       O    -8.25680   -5.39191   10.44905
      H1    -8.33204   -4.53841   10.91388
       H    -1.46569   -5.16290   13.83006
       O    -1.39578   -4.29048   13.45446
      H1    -0.56623   -3.94772   13.77951
       H    -3.13991   -9.71199   12.82614
       O    -2.52976   -8.98629   12.71458
      H1    -2.73590   -8.60038   11.88287
       H    -4.61795   -4.85786   12.82552
       O    -4.79642   -4.06490   13.36783
      H1    -4.31374   -4.19603   14.20724
       H    -3.10583   -7.21165    9.72118
       O    -3.39774   -7.68299   10.48320
      H1    -3.97573   -8.33602   10.06575
       H    -6.13111   -8.87305   13.76123
       O    -6.76899   -9.28263   13.16307
      H1    -7.22393   -8.56687   12.72419
       H    -7.60076   -5.92983    7.88811
       O    -6.81919   -5.38441    7.98211
      H1    -6.77745   -5.02184    7.05193
       H    -2.93856   -7.56013   13.83325
       O    -2.95808   -6.74504   14.31233
      H1    -2.70824   -6.97314   15.25101
       H    -8.24886   -7.20365   10.72689
       O    -8.22118   -8.03233   11.19308
      H1    -8.45571   -8.71926   10.58035
       H    -6.02431   -8.69802    9.29880
       O    -5.78404   -9.23450   10.09426
      H1    -6.54311   -9.27776   10.67243

