60
frame 0 | Written by MDAnalysis XYZWriter (release 2.4.3)
       H     4.35777   -7.84933   13.27427
       O     4.84494   -8.51051   12.74264
      H1     5.72175   -8.14598   12.69796
       H     5.82528  -12.74062   15.21078
       O     5.17789  -12.06367   14.95917
      H1     4.62762  -11.93410   15.73537
       H     4.25169   -6.14740   17.17854
       O     4.50066   -5.28743   16.84908
      H1     4.94100   -5.52722   16.02811
       H     2.47010   -8.30418   13.63955
       O     2.54900   -7.36300   13.87511
      H1     2.21497   -7.32458   14.79185
       H     3.23292  -10.18631   13.06162
       O     2.29060  -10.06349   12.93628
      H1     2.04810  -10.45168   12.09029
       H    -1.27662   -7.11082   17.39501
       O    -1.63569   -7.52536   16.62111
      H1    -1.52282   -8.44414   16.81078
       H     1.01257   -6.00700   16.80043
       O     0.75754   -5.85523   15.88572
      H1    -0.06151   -6.35452   15.82114
       H     8.22408   -6.78894   17.72863
       O     7.94371   -6.84671   16.81294
      H1     7.60381   -7.75802   16.76925
       H     1.61070  -10.20701   17.11452
       O     0.85439   -9.73264   16.75633
      H1     0.79484  -10.13996   15.87837
       H     0.70779   -5.67475   19.07878
       O     1.50113   -5.40855   18.57669
      H1     1.39209   -4.45946   18.46631
       H     4.62807   -5.96121   13.59736
       O     5.22450   -5.43650   14.15554
      H1     4.99315   -4.55110   13.89748
       H     3.32856   -8.58791   17.07621
       O     3.63999   -7.88254   16.48239
      H1     4.49259   -8.21529   16.22101
       H     5.96696  -10.56457   18.64745
       O     5.35635  -10.95030   18.06606
      H1     4.93966  -11.62757   18.60201
       H     3.49540   -3.62352   17.02091
       O     3.36686   -2.68637   17.27330
      H1     2.61262   -2.40385   16.77588
       H     1.89078  -13.41884   16.08627
       O     2.02565  -12.63795   16.61025
      H1     2.56513  -12.92079   17.37704
       H     5.93309  -10.03693   16.36075
       O     6.13772   -9.23032   15.93773
      H1     6.35873   -9.51375   15.02873
       H     6.38339   -2.98370   17.65126
       O     6.61558   -3.91125   17.81410
      H1     5.97037   -4.36681   17.26934
       H     0.36708  -12.44582   16.82777
       O    -0.57847  -12.37416   17.02482
      H1    -0.76793  -11.49147   16.67548
       H     8.04849  -10.24707   16.64213
       O     8.69394  -10.75878   17.15845
      H1     9.22537  -11.26037   16.51489
       H     0.81141  -10.14487   13.89813
       O    -0.01532  -10.56417   14.20031
      H1    -0.68540  -10.01660   13.79586

