60
frame 0 | Written by MDAnalysis XYZWriter (release 2.4.3)
       H    16.04377   -4.36545   17.80112
       O    16.45898   -5.02022   17.20031
      H1    16.81632   -4.45626   16.49877
       H    12.74943  -12.05410   18.25555
       O    12.65798  -12.18540   19.19552
      H1    13.53385  -12.50393   19.48392
       H    15.87075   -5.30870   12.85309
       O    15.80959   -4.71110   13.61298
      H1    16.30623   -5.14209   14.31220
       H    14.41328   -8.30149   11.56204
       O    14.11989   -7.66806   10.91932
      H1    13.41194   -8.12309   10.43831
       H    17.68786   -6.24817   18.32771
       O    18.32722   -6.87741   18.66602
      H1    17.94529   -7.71721   18.37536
       H    18.23227  -10.16840   18.23058
       O    17.38457   -9.67313   18.33050
      H1    17.30556   -9.33957   17.42736
       H    14.15269   -4.45764   14.46585
       O    13.32143   -4.06665   14.75301
      H1    13.49101   -3.98172   15.71195
       H    15.55399   -9.08547   13.40052
       O    15.09699   -8.22613   13.53051
      H1    15.74481   -7.65296   13.98528
       H    18.67520  -11.82925   14.33573
       O    18.21070  -11.38151   15.02547
      H1    18.53038  -11.87364   15.80164
       H    10.71951   -8.03549   19.00257
       O    11.61832   -8.03900   18.64356
      H1    11.57752   -8.70898   17.93071
       H    13.25076  -10.03885   11.62033
       O    14.18613  -10.32701   11.68481
      H1    14.19616  -11.04399   12.30888
       H    15.09641  -12.68705   13.29036
       O    15.90738  -12.95198   12.86872
      H1    16.25568  -12.07071   12.60294
       H    17.84768  -10.26635   12.35225
       O    17.01661  -10.44338   12.81453
      H1    17.35294  -10.85349   13.65091
       H    13.57014   -6.46761   17.55557
       O    14.19353   -6.73891   16.88493
      H1    15.00084   -6.25942   17.08782
       H    13.31063   -7.41663   13.94590
       O    12.73348   -6.95226   14.58050
      H1    13.37293   -6.76977   15.30345
       H    10.81801   -9.10287   15.84661
       O    11.12172   -9.65124   16.58988
      H1    10.33913  -10.18368   16.86298
       H    13.86487  -10.72169   16.62029
       O    13.30682  -11.43797   16.30000
      H1    12.42359  -11.03546   16.23728
       H    13.50724  -11.96638   14.55633
       O    13.58744  -12.26316   13.64722
      H1    12.73394  -12.60884   13.39035
       H    17.84190   -7.22364   13.95408
       O    17.20476   -7.02816   14.67342
      H1    17.60905   -7.47463   15.42683
       H    14.77372   -9.18747   15.24494
       O    14.94433   -9.20314   16.19796
      H1    14.43937   -8.45885   16.51301

