60
frame 0 | Written by MDAnalysis XYZWriter (release 2.4.3)
       H     7.55854   -7.18952  -11.31105
       O     7.94025   -6.63461  -11.99255
      H1     7.25296   -6.01541  -12.25609
       H     3.31464  -10.35565  -10.04387
       O     4.09558  -10.84407  -10.41578
      H1     4.37850  -11.33941   -9.65832
       H     4.60338   -8.03920  -11.64626
       O     5.14339   -8.08224  -10.84864
      H1     5.09593   -9.01210  -10.61426
       H     6.75006  -12.09679  -11.69554
       O     7.18767  -12.64878  -11.01743
      H1     7.76352  -13.20785  -11.52957
       H     5.72946   -6.75284  -15.36413
       O     5.23773   -7.56820  -15.28261
      H1     4.75228   -7.41969  -14.44288
       H     8.79181  -13.12435  -15.51759
       O     7.98307  -12.70342  -15.16809
      H1     7.24910  -13.15197  -15.61627
       H     2.87406  -12.99162  -12.16174
       O     2.92022  -12.03825  -12.32286
      H1     3.45036  -11.72483  -11.58978
       H     5.34890   -9.51147  -15.86429
       O     4.76308  -10.25748  -15.83141
      H1     5.25306  -10.91851  -16.33761
       H     8.18316   -9.84309  -10.29912
       O     8.71072   -9.33455   -9.67091
      H1     8.47305   -9.77977   -8.83982
       H     5.10894  -14.60483  -15.70009
       O     5.99828  -14.66112  -15.26550
      H1     6.38473  -15.42498  -15.70184
       H     6.07461  -10.46817  -13.49992
       O     5.93959  -10.93956  -12.67527
      H1     5.05403  -11.32017  -12.72977
       H     3.32540  -10.06046  -14.91677
       O     2.52247  -10.00348  -14.40746
      H1     2.65135  -10.68254  -13.73465
       H     2.99586   -8.69062  -13.15595
       O     3.37249   -7.81798  -12.97479
      H1     2.65414   -7.22830  -13.16813
       H     8.94298  -14.77812  -13.05974
       O     8.85442  -13.99714  -12.54432
      H1     8.94833  -13.28763  -13.17619
       H     9.62622  -10.79749  -13.33095
       O    10.08352  -11.58373  -13.64567
      H1     9.45186  -11.83985  -14.35969
       H     6.45662  -11.97063   -8.89219
       O     5.66763  -11.78054   -8.40649
      H1     5.94624  -11.82806   -7.48688
       H     6.33237  -14.22865  -10.80758
       O     6.23916  -15.10130  -10.40775
      H1     5.75643  -14.96741   -9.58793
       H     5.35988  -13.24801  -17.05961
       O     5.87400  -12.50790  -17.35766
      H1     6.76863  -12.87080  -17.51752
       H     8.18569   -9.50117  -15.50263
       O     8.12254  -10.20133  -16.15219
      H1     7.96953  -11.03261  -15.66188
       H     9.26358   -8.10768  -14.40282
       O     8.65466   -8.51801  -13.78006
      H1     8.34497   -7.77391  -13.24927

