60
frame 0 | Written by MDAnalysis XYZWriter (release 2.4.3)
       H    -9.87291    8.36071   17.93054
       O    -9.65493    9.20187   17.54572
      H1    -9.08667    8.94935   16.81672
       H   -18.23734    9.53561   15.96250
       O   -17.51062   10.09592   15.62865
      H1   -17.92294   10.86873   15.18799
       H   -10.55511    6.02931   18.45229
       O   -10.44959    6.91309   18.76877
      H1   -11.34119    7.23260   18.96668
       H   -11.23390   13.93265   16.91705
       O   -12.14540   14.16274   16.70865
      H1   -12.45523   14.16786   17.61432
       H   -16.25340   10.21369   13.85942
       O   -15.50596   10.78897   13.70008
      H1   -15.17197   11.00113   14.58271
       H    -8.55229   10.20099   18.50475
       O    -8.10137   10.70586   19.19019
      H1    -8.45151   11.58338   19.16089
       H    -9.21101   12.74958   17.76387
       O    -9.21591   13.17074   18.65189
      H1    -9.93881   12.74362   19.13447
       H   -11.02808   11.05440   14.57913
       O   -11.54476   10.83943   13.81303
      H1   -12.33860   11.35465   13.96053
       H   -17.84436   13.66256   16.49418
       O   -17.00721   14.01675   16.14304
      H1   -16.35297   13.33120   16.28181
       H   -12.26763    7.30493   16.49203
       O   -12.56760    7.84473   15.76605
      H1   -12.02865    7.45434   15.05338
       H   -13.20741   10.60679   18.11654
       O   -13.19159   11.54074   18.36060
      H1   -13.94607   11.67626   18.98312
       H   -14.42595   12.03078   17.04343
       O   -14.75515   12.66086   16.38691
      H1   -14.06890   13.35886   16.38860
       H   -14.19495   13.03408   14.74181
       O   -13.52243   13.00584   14.04998
      H1   -13.85248   13.53215   13.32334
       H   -14.19467    8.06781   14.69604
       O   -15.03294    7.79294   14.26708
      H1   -15.37564    8.56751   13.82950
       H   -13.71730    6.14976   17.77144
       O   -13.51297    6.78606   18.49028
      H1   -14.32622    7.30562   18.51779
       H   -17.84996   10.59147   18.23640
       O   -18.33194   11.37327   18.60229
      H1   -18.56878   11.87289   17.84366
       H   -16.10017    9.44436   19.70917
       O   -16.47598    9.39922   18.82737
      H1   -15.71300    9.39363   18.23051
       H    -9.24058   11.67542   15.87888
       O   -10.19219   11.64260   16.06619
      H1   -10.31361   10.97857   16.77135
       H   -15.51903   15.35491   18.29817
       O   -16.39536   15.69531   18.17356
      H1   -16.73568   15.16775   17.44339
       H   -15.24809    9.33137   16.43239
       O   -14.47900    9.40158   17.03926
      H1   -13.79554    8.92461   16.53452

