60
frame 0 | Written by MDAnalysis XYZWriter (release 2.4.3)
       H    -3.52891   -1.46767  -16.38909
       O    -4.27819   -1.79462  -15.89119
      H1    -4.62712   -2.56503  -16.36080
       H    -9.12134    2.40647  -13.79420
       O    -8.29544    2.04030  -13.44130
      H1    -8.34586    1.11176  -13.65200
       H    -5.56332    2.21340  -15.53107
       O    -5.23911    2.29959  -16.43069
      H1    -4.33907    1.95575  -16.37919
       H    -5.35062   -0.58249  -17.76323
       O    -6.25197   -0.28255  -18.05141
      H1    -6.48099    0.30577  -17.35419
       H    -8.23459   -0.22662  -15.34397
       O    -7.67980   -0.37121  -14.60694
      H1    -8.03876   -1.17294  -14.18978
       H    -3.54668    4.09145  -14.39460
       O    -3.30117    4.50432  -15.25353
      H1    -4.19323    4.63643  -15.62405
       H   -10.57874   -0.57796  -14.55998
       O   -10.77217   -0.77703  -15.48210
      H1   -11.63048   -0.38357  -15.62751
       H   -12.20973   -1.39482  -18.72963
       O   -13.07641   -1.67385  -19.02012
      H1   -13.32003   -2.39934  -18.45162
       H   -11.18363    4.25929  -17.02413
       O   -10.37609    3.87838  -16.64949
      H1   -10.01109    3.40584  -17.40457
       H   -11.50722   -4.03584  -14.58797
       O   -11.99023   -3.58841  -15.29419
      H1   -11.76173   -2.63953  -15.28348
       H    -8.85326    0.98569  -17.56844
       O    -8.18264    1.14284  -16.91067
      H1    -8.03775    2.07145  -17.02683
       H    -7.80469   -3.00838  -17.43837
       O    -8.09368   -2.52285  -18.17764
      H1    -7.63993   -1.65722  -18.05624
       H    -9.98192    5.54827  -14.83689
       O   -10.03544    5.56051  -13.87245
      H1    -9.61933    6.43994  -13.70961
       H    -9.95003   -1.56384  -18.60913
       O   -10.46082   -0.79557  -18.35339
      H1   -10.31036   -0.69119  -17.39703
       H    -5.02775    0.13045  -13.93687
       O    -4.63772    0.66932  -13.26454
      H1    -3.78588    0.24220  -13.08630
       H    -6.31282    5.54965  -14.75016
       O    -6.00483    5.35703  -15.65590
      H1    -6.39033    6.07315  -16.19836
       H    -6.45525    4.12001  -12.46287
       O    -6.15490    3.19732  -12.42365
      H1    -6.81317    2.77477  -12.94920
       H   -14.08051    0.77970  -15.46748
       O   -13.25111    0.89853  -15.91612
      H1   -12.70748    1.40306  -15.32624
       H    -6.66151    4.44450  -17.08194
       O    -6.98496    3.76600  -17.70244
      H1    -6.36998    3.04827  -17.56850
       H   -11.67647    2.43774  -13.80940
       O   -11.02816    2.09087  -14.47314
      H1   -10.91177    2.79860  -15.13845

