60
frame 1 | Written by MDAnalysis XYZWriter (release 2.4.3)
       H   -11.32074  -16.06053   -8.04535
       O   -11.47024  -16.82916   -8.58459
      H1   -12.43296  -16.82648   -8.63529
       H   -11.29017  -13.47252   -6.48255
       O   -11.53067  -12.57828   -6.25693
      H1   -12.46466  -12.67778   -6.05063
       H   -18.35981  -12.59430   -9.30844
       O   -18.01291  -12.92917   -8.46066
      H1   -17.47304  -13.70424   -8.71177
       H   -10.48464  -16.43114  -10.06139
       O   -10.20577  -16.09513  -10.92084
      H1    -9.26488  -16.02648  -10.71910
       H   -16.69458  -18.81529  -10.44223
       O   -16.79929  -18.25110  -11.20309
      H1   -15.85629  -17.95728  -11.32225
       H   -17.47972  -16.80042   -7.02448
       O   -18.15457  -16.93894   -7.72352
      H1   -18.22015  -17.89515   -7.71331
       H   -17.27313  -16.02405   -8.92402
       O   -16.91979  -15.20543   -9.29722
      H1   -15.98613  -15.40235   -9.45186
       H   -10.74777  -16.42639  -12.51754
       O   -11.18731  -16.50087  -13.36200
      H1   -10.98791  -17.41632  -13.63061
       H   -15.15027  -11.15748   -8.20986
       O   -14.24443  -11.20499   -8.52379
      H1   -14.19946  -10.63175   -9.29459
       H   -10.46031  -14.20856  -10.54587
       O   -10.49917  -13.24297  -10.30155
      H1   -11.18470  -13.18382   -9.61201
       H   -14.45083  -16.08520   -7.59430
       O   -14.43421  -15.80702   -6.65158
      H1   -15.21899  -15.26232   -6.56865
       H   -11.26971  -15.05587   -5.77095
       O   -10.80843  -15.11840   -6.63430
      H1    -9.90429  -14.88090   -6.39447
       H   -13.13868  -14.47957   -4.04235
       O   -12.80223  -15.20634   -4.57299
      H1   -13.56000  -15.59033   -5.01548
       H   -14.25713  -17.40332  -12.25119
       O   -14.11780  -17.92256  -11.41872
      H1   -14.05350  -18.83916  -11.73502
       H   -16.38525  -14.63690  -13.11839
       O   -15.83856  -14.71758  -13.91242
      H1   -16.48242  -15.10956  -14.57649
       H   -13.90220  -15.27974   -9.64996
       O   -14.22977  -16.15708   -9.41711
      H1   -14.12221  -16.62519  -10.26115
       H   -18.31221  -16.19746  -12.14717
       O   -17.67529  -15.49671  -11.97623
      H1   -17.48277  -15.72540  -11.06329
       H   -14.40921  -13.00634  -11.66146
       O   -13.82231  -13.77980  -11.63554
      H1   -13.00891  -13.54835  -12.13615
       H   -14.52122  -15.73845  -13.71599
       O   -13.97755  -16.54169  -13.80767
      H1   -13.04529  -16.21916  -13.84458
       H   -13.33475  -12.86291   -8.74873
       O   -12.87234  -13.57623   -9.22800
      H1   -13.12265  -13.43952  -10.16237

