60
frame 0 | Written by MDAnalysis XYZWriter (release 2.4.3)
       H    -8.78853   -7.67910  -13.29988
       O    -8.21389   -7.12522  -13.79859
      H1    -7.50648   -6.96645  -13.14319
       H    -7.37583   -7.47546  -15.50469
       O    -6.82440   -7.85583  -16.20754
      H1    -6.50521   -8.70501  -15.90960
       H    -9.38019   -1.96689  -10.80442
       O    -9.14880   -1.15708  -11.30093
      H1    -8.24880   -1.29232  -11.57453
       H    -7.05164   -4.73114   -9.70211
       O    -6.44536   -4.46091  -10.40559
      H1    -6.09447   -3.64383   -9.99931
       H    -5.22890   -5.59885  -10.67817
       O    -4.60798   -6.30079  -10.50618
      H1    -3.97347   -6.20969  -11.23951
       H    -8.23459   -0.22662  -15.34397
       O    -7.67980   -0.37121  -14.60694
      H1    -8.03876   -1.17294  -14.18978
       H   -10.57874   -0.57796  -14.55998
       O   -10.77217   -0.77703  -15.48210
      H1   -11.63048   -0.38357  -15.62751
       H   -11.28248   -2.28920   -9.47811
       O   -10.38131   -2.59672   -9.28655
      H1   -10.53199   -3.10951   -8.50323
       H   -11.50722   -4.03584  -14.58797
       O   -11.99023   -3.58841  -15.29419
      H1   -11.76173   -2.63953  -15.28348
       H    -8.73924   -5.72708   -8.04103
       O    -8.43150   -5.77836   -8.97955
      H1    -8.11333   -6.70144   -9.07691
       H    -4.49053   -3.59830  -13.17693
       O    -4.71712   -2.79775  -12.64064
      H1    -5.55298   -2.50706  -12.95798
       H    -6.42745   -0.16458  -10.84869
       O    -6.23093   -0.75075  -11.56318
      H1    -5.65467   -0.28927  -12.21086
       H   -10.68772   -4.30879  -10.20362
       O   -10.59075   -5.24180  -10.34450
      H1    -9.86662   -5.46747   -9.77382
       H    -5.96594   -7.56340  -11.20257
       O    -6.83596   -7.88677  -11.42298
      H1    -6.72639   -8.51646  -12.15639
       H    -7.72538   -4.25777  -14.80686
       O    -7.66321   -4.52558  -15.72986
      H1    -6.73417   -4.48572  -15.97248
       H   -10.81616   -7.85176  -11.81804
       O   -10.28475   -8.33443  -12.48962
      H1   -10.96318   -8.82531  -13.01925
       H   -11.87746   -0.00323  -12.44437
       O   -11.50228   -0.86443  -12.64857
      H1   -10.66682   -0.88238  -12.16634
       H    -7.48583   -3.91220  -11.98445
       O    -8.04687   -3.46810  -12.68595
      H1    -8.81801   -4.04016  -12.81544
       H   -10.55818   -4.68995  -12.39426
       O   -10.36474   -4.69880  -13.35644
      H1   -10.36524   -5.66282  -13.54196
       H   -10.42156   -4.88325  -17.32060
       O    -9.86556   -5.50353  -16.85820
      H1    -9.17275   -4.98248  -16.39771

