60
frame 0 | Written by MDAnalysis XYZWriter (release 2.4.3)
       H    -6.23201  -12.81145  -11.52311
       O    -6.91169  -12.10823  -11.41058
      H1    -6.82073  -11.78075  -10.51355
       H    -4.99115  -17.34199   -9.39995
       O    -4.10039  -17.51847   -9.00856
      H1    -3.58719  -16.73229   -9.10911
       H     1.20140  -15.33646  -13.85646
       O     1.31153  -16.05943  -13.21281
      H1     0.41235  -16.29053  -12.93544
       H    -0.92398  -11.36468  -13.80255
       O    -1.59341  -10.91249  -14.37783
      H1    -1.66836  -11.49153  -15.16414
       H     0.89457  -12.07004  -12.67122
       O     0.04684  -12.42859  -12.94836
      H1    -0.38576  -12.66094  -12.10660
       H    -1.24430  -16.78237  -11.73659
       O    -1.08628  -16.52368  -12.65244
      H1    -1.14873  -17.29225  -13.20787
       H     2.87406  -12.99162  -12.16174
       O     2.92022  -12.03825  -12.32286
      H1     3.45036  -11.72483  -11.58978
       H    -0.51739  -12.58831   -8.36972
       O     0.20627  -12.76127   -8.92938
      H1     0.77750  -11.98888   -8.77824
       H    -1.93545  -15.17049  -13.92209
       O    -2.28975  -14.81989  -14.77190
      H1    -2.50191  -15.64086  -15.22464
       H    -0.40277  -14.93891   -6.15682
       O    -0.92655  -14.67793   -6.93955
      H1    -1.82476  -14.49454   -6.57703
       H    -0.07586   -8.47120  -11.92850
       O    -1.00931   -8.47481  -11.57583
      H1    -1.43103   -9.31074  -11.88373
       H    -2.24474  -10.92858   -8.23730
       O    -1.84692  -11.60763   -7.68252
      H1    -2.63379  -12.03753   -7.32842
       H    -1.15572  -13.09224  -10.13344
       O    -1.63392  -13.08174  -10.97428
      H1    -2.46861  -13.51734  -10.76851
       H     1.26245  -14.27943   -8.79171
       O     2.05648  -14.85374   -8.76101
      H1     2.25842  -14.88737   -9.74072
       H    -3.23720  -11.46638  -14.14064
       O    -4.14897  -11.78941  -14.16491
      H1    -4.58060  -11.23949  -14.86378
       H    -4.63589  -14.74715  -12.04027
       O    -4.53233  -13.80665  -11.83841
      H1    -4.36344  -13.33432  -12.70438
       H     1.00126  -13.30874  -14.45915
       O     1.46624  -13.34423  -15.27183
      H1     0.80979  -13.56593  -15.93215
       H    -3.59303  -11.15355  -12.54476
       O    -3.06040  -10.92626  -11.77213
      H1    -2.54247  -11.70368  -11.52100
       H    -3.56365  -10.34777  -10.19060
       O    -3.84305  -10.26636   -9.25155
      H1    -3.54743   -9.35018   -9.09708
       H    -1.73428  -15.46210   -8.37047
       O    -1.98883  -15.77423   -9.23171
      H1    -1.44613  -16.55023   -9.28319

