60
frame 0 | Written by MDAnalysis XYZWriter (release 2.4.3)
       H    12.80112    5.07006   11.43694
       O    13.10202    5.38540   10.57115
      H1    12.48284    4.99797    9.94183
       H     7.46795    8.17290    9.38877
       O     8.10312    8.31515    8.63838
      H1     8.89935    8.53419    9.13717
       H    11.02797   10.06003   12.76039
       O    10.72891    9.54506   13.51237
      H1    11.49131    9.45836   14.09259
       H    11.65989    6.83937    6.46386
       O    11.34905    6.92447    7.38565
      H1    11.69260    6.10546    7.78205
       H    12.60545   10.60563   11.44667
       O    11.65857   10.48168   11.25242
      H1    11.32672   11.38300   11.21621
       H     9.12480   10.73932    7.17660
       O     9.35242    9.95476    6.65561
      H1     8.68069    9.34712    6.98156
       H    14.34843    7.03993    9.67485
       O    15.25567    7.34172    9.57083
      H1    15.65419    7.15794   10.42686
       H    15.05741    9.89532   11.38219
       O    14.22358    9.98254   11.86586
      H1    13.94194    9.10879   12.14821
       H    10.60389    6.73646   14.47828
       O     9.69669    6.97371   14.26624
      H1     9.77041    7.87642   13.90093
       H    11.91781    8.91463    7.15377
       O    12.08871    9.52604    7.85961
      H1    12.44543    8.97021    8.53865
       H     8.08426   10.95692   11.87077
       O     7.57373   11.05270   12.67082
      H1     8.08623   11.78402   13.08392
       H    12.19500    7.91128   12.47516
       O    13.05595    7.52273   12.29582
      H1    12.83966    6.85199   11.63307
       H    10.99062   13.13494    7.96124
       O    10.93535   12.56965    7.16606
      H1    11.09331   11.71037    7.54441
       H    11.47739   13.56667   10.91312
       O    11.90984   13.10569   11.62189
      H1    11.79418   13.66424   12.41745
       H     7.27551    9.19480   12.89208
       O     7.40098    8.24584   13.04243
      H1     6.82716    7.90542   12.35976
       H    13.57764   10.50576    7.27749
       O    14.21341   10.93918    6.66401
      H1    14.61531   11.57318    7.24841
       H     7.01946    4.92524   11.48182
       O     7.45112    5.12955   10.63060
      H1     8.34108    5.43436   10.88633
       H    10.12337    5.71100   12.57179
       O    10.23222    5.76140   11.63933
      H1    10.18645    6.68264   11.45729
       H     8.84603   11.78594    9.92845
       O     8.52290   10.88524   10.10205
      H1     7.90917   10.72512    9.38715
       H    10.84027    8.35531    8.97232
       O    10.47902    8.36383    9.84850
      H1    10.86237    9.15613   10.25789

