60
frame 0 | Written by MDAnalysis XYZWriter (release 2.4.3)
       H    -8.86912   -5.36389   -6.03408
       O    -9.55783   -5.85550   -6.47995
      H1    -9.21069   -6.75887   -6.32615
       H   -13.57745   -0.12097   -5.87499
       O   -13.88767   -1.02690   -6.05371
      H1   -14.34515   -1.38612   -5.27915
       H   -10.75874   -3.91868   -4.13644
       O   -11.53584   -3.36415   -4.28746
      H1   -11.62389   -3.37891   -5.27273
       H   -12.81849   -4.47452   -1.62816
       O   -12.76417   -3.50668   -1.60828
      H1   -12.41969   -3.27494   -0.73484
       H   -12.90379   -6.09563   -5.19570
       O   -13.33643   -5.49002   -4.54617
      H1   -12.65512   -4.78980   -4.49688
       H   -12.43547   -7.92210   -6.43467
       O   -12.39060   -7.84131   -5.49682
      H1   -13.25709   -8.13600   -5.21576
       H   -12.55955   -2.17173   -6.63665
       O   -11.93934   -2.80984   -6.98437
      H1   -12.46082   -3.57572   -7.22457
       H    -8.00154   -2.74852   -6.78076
       O    -8.81678   -3.19685   -6.47330
      H1    -9.35564   -2.47491   -6.06562
       H   -14.66160   -3.69791   -7.38404
       O   -14.12629   -3.84340   -8.19307
      H1   -14.08450   -2.97329   -8.61127
       H    -9.47743   -7.17349   -1.13536
       O   -10.24719   -6.63825   -1.33450
      H1   -11.03353   -7.21358   -1.27501
       H    -9.41064   -2.99932   -1.97505
       O   -10.23470   -2.55283   -1.64043
      H1   -10.95481   -3.02340   -2.09759
       H   -10.82786   -1.70900   -4.85257
       O   -10.23938   -1.07539   -5.35986
      H1   -10.00171   -0.45615   -4.68254
       H   -13.25815   -6.92673   -8.00414
       O   -13.31500   -7.89378   -8.10377
      H1   -12.39424   -8.20270   -8.00436
       H    -9.92315   -6.05254   -4.44594
       O    -9.79398   -5.44155   -3.68683
      H1   -10.09929   -5.99928   -2.92898
       H   -13.43264   -5.87717   -2.85845
       O   -13.49641   -6.12005   -1.89423
      H1   -12.93438   -6.89282   -1.85968
       H   -15.19609   -1.44032   -3.09343
       O   -14.81628   -2.23421   -3.46671
      H1   -14.35864   -2.62885   -2.71547
       H   -11.05046   -6.03927   -7.36653
       O   -11.70747   -5.67233   -7.96927
      H1   -11.31610   -5.65179   -8.84601
       H   -16.90913   -3.10282   -6.85129
       O   -16.11876   -3.15799   -6.28042
      H1   -16.44753   -2.90120   -5.41610
       H   -16.17372   -4.77641   -5.33976
       O   -16.35550   -5.71997   -5.25076
      H1   -15.53564   -6.11399   -4.96959
       H   -12.20650   -1.59259   -3.24813
       O   -11.70016   -0.77451   -3.11981
      H1   -10.94889   -1.06580   -2.61730

