60
frame 0 | Written by MDAnalysis XYZWriter (release 2.4.3)
       H   -12.31203    5.85282   -1.56599
       O   -12.43086    5.05595   -1.03751
      H1   -11.59871    4.56318   -1.23043
       H   -15.90643    3.60815   -7.35334
       O   -16.03381    2.67106   -7.58103
      H1   -15.82078    2.24680   -6.75056
       H   -17.40953    6.42870    0.97020
       O   -17.76588    6.10390    1.80903
      H1   -18.11010    5.23388    1.61557
       H   -18.04772    1.00193   -0.91451
       O   -17.82243    0.91655    0.02575
      H1   -17.37078    0.04807    0.08863
       H   -16.34455    9.36143   -0.71632
       O   -15.96116   10.18715   -0.37773
      H1   -15.43303   10.54187   -1.11434
       H   -13.59897    3.82519   -1.94999
       O   -13.63260    3.09129   -2.57781
      H1   -14.42634    3.23707   -3.13637
       H   -16.11551    5.18674   -5.80721
       O   -16.43247    5.24539   -6.74317
      H1   -17.35716    4.95216   -6.63193
       H   -14.75518    5.49350   -3.72003
       O   -14.93388    5.00514   -4.52868
      H1   -14.21781    5.42913   -5.05268
       H   -16.42233    3.23013   -1.63401
       O   -16.77799    3.51049   -2.49553
      H1   -17.39010    4.22761   -2.31137
       H   -14.92374    6.36929    3.68847
       O   -15.11909    6.78272    2.85585
      H1   -15.79280    6.22404    2.50198
       H   -13.11893    0.25042   -2.46431
       O   -13.80534    0.51114   -1.83545
      H1   -13.78053    1.46741   -1.82425
       H   -12.83210    2.16876   -4.73992
       O   -12.46010    1.50145   -5.29338
      H1   -11.61614    1.30588   -4.89557
       H   -17.52589    8.27948   -4.40204
       O   -16.97722    9.06262   -4.13854
      H1   -17.39732    9.86486   -4.47994
       H   -14.43836    7.45165   -2.84913
       O   -14.85217    6.73048   -2.32627
      H1   -14.32130    6.75881   -1.54676
       H   -14.51769    7.37920    1.45711
       O   -14.16076    7.81217    0.64002
      H1   -14.68924    8.61014    0.53841
       H   -15.53046    3.06255    1.23487
       O   -15.64045    2.79458    0.31470
      H1   -16.41567    2.18571    0.38834
       H   -17.69055    8.00005   -1.36388
       O   -16.98181    7.42242   -0.95172
      H1   -16.56001    7.02522   -1.73365
       H   -15.78669    0.61816   -2.05761
       O   -16.33359    0.27074   -2.78166
      H1   -17.25796    0.41653   -2.41726
       H   -15.64752    3.21715   -4.63884
       O   -15.28302    2.33701   -4.79792
      H1   -15.80181    1.77325   -4.19534
       H   -17.32572   -0.57136   -4.89320
       O   -17.72565   -1.41160   -4.69501
      H1   -17.51677   -1.64400   -3.75737

