60
frame 0 | Written by MDAnalysis XYZWriter (release 2.4.3)
       H    -3.29428    5.71018  -10.60942
       O    -2.78646    5.67412  -11.43648
      H1    -2.69794    4.71624  -11.51749
       H    -4.64592    6.40275   -8.23908
       O    -4.46209    6.52960   -9.17632
      H1    -5.30534    6.51967   -9.59357
       H    -7.28984    8.65087   -9.26344
       O    -6.43466    8.59360   -8.78958
      H1    -6.53354    7.77657   -8.27262
       H    -3.94794    6.87945  -12.40005
       O    -4.39521    7.67874  -12.63416
      H1    -4.11987    8.26572  -11.91248
       H    -3.90026    2.26538   -7.24208
       O    -4.68013    1.80664   -6.90578
      H1    -5.44471    2.25586   -7.34202
       H    -2.65348    5.53264   -6.13381
       O    -3.41394    6.08780   -6.38467
      H1    -2.96371    6.86047   -6.71986
       H    -0.61098    7.82520   -9.92942
       O    -0.13061    7.41429   -9.21694
      H1    -0.51768    7.83587   -8.46123
       H    -9.07941    5.39071   -9.95520
       O    -8.07881    5.35734   -9.89616
      H1    -7.91087    5.64988   -8.98570
       H    -6.64160    5.18716   -7.47893
       O    -6.65705    6.15577   -7.34814
      H1    -7.35005    6.27321   -6.66819
       H    -6.25229    3.38208   -8.90958
       O    -5.56733    3.05341   -9.49058
      H1    -5.97238    2.98103  -10.34073
       H    -8.62940    8.50686  -12.73448
       O    -9.04421    7.66665  -12.52072
      H1    -8.32145    7.00607  -12.66827
       H    -7.04071    5.54367  -11.37876
       O    -6.65679    5.81650  -12.27158
      H1    -5.89252    6.34323  -12.06048
       H    -9.63927    9.34015  -10.00897
       O    -8.84633    8.81075   -9.96204
      H1    -8.95093    8.07938  -10.57487
       H    -6.45525    4.12001  -12.46287
       O    -6.15490    3.19732  -12.42365
      H1    -6.81317    2.77477  -12.94920
       H    -1.88274    8.37639   -6.39199
       O    -1.97861    8.19419   -7.33340
      H1    -2.54806    8.89451   -7.70866
       H    -1.05729    5.00710   -9.87321
       O    -0.73162    4.24001   -9.38682
      H1     0.26363    4.33475   -9.42858
       H    -3.75497    9.96539   -9.93663
       O    -4.49338    9.62226  -10.40415
      H1    -5.03824    9.13736   -9.79199
       H    -5.29201   10.09137   -5.91178
       O    -5.43907    9.14633   -6.12669
      H1    -6.09554    9.20625   -6.82153
       H    -7.72498    2.37789   -6.77024
       O    -7.53661    3.21923   -7.21751
      H1    -8.42315    3.56673   -7.31076
       H    -1.98898    8.24692  -12.15003
       O    -1.05216    8.23049  -12.24366
      H1    -0.84148    7.30522  -12.48547

