60
frame 0 | Written by MDAnalysis XYZWriter (release 2.4.3)
       H     0.54494  -17.82400   -8.42088
       O    -0.11928  -18.35262   -8.89869
      H1    -0.89306  -18.30763   -8.32751
       H    -4.99115  -17.34199   -9.39995
       O    -4.10039  -17.51847   -9.00856
      H1    -3.58719  -16.73229   -9.10911
       H    -0.45888  -18.86023  -10.76092
       O    -1.24493  -18.97644  -11.29618
      H1    -1.81524  -19.36618  -10.64467
       H     1.20140  -15.33646  -13.85646
       O     1.31153  -16.05943  -13.21281
      H1     0.41235  -16.29053  -12.93544
       H    -3.49587  -16.73746   -5.23391
       O    -2.76489  -17.25320   -4.91962
      H1    -2.62011  -17.90469   -5.63741
       H    -6.56497  -15.66089   -9.50926
       O    -6.54670  -16.59856   -9.75535
      H1    -6.97692  -16.56781  -10.62069
       H    -1.24430  -16.78237  -11.73659
       O    -1.08628  -16.52368  -12.65244
      H1    -1.14873  -17.29225  -13.20787
       H     1.40243  -18.09564  -14.10123
       O     1.87713  -18.92157  -14.27028
      H1     2.66911  -18.80506  -13.73855
       H    -5.81718  -16.38906  -12.65557
       O    -4.89443  -16.20179  -12.88687
      H1    -4.50348  -17.09849  -12.99374
       H     1.55566  -16.64681   -6.40083
       O     1.49838  -16.98317   -7.29024
      H1     1.66121  -16.16949   -7.80943
       H    -1.93545  -15.17049  -13.92209
       O    -2.28975  -14.81989  -14.77190
      H1    -2.50191  -15.64086  -15.22464
       H     2.40498  -15.33631  -12.06207
       O     3.01217  -14.91979  -11.43437
      H1     3.82955  -15.36702  -11.65779
       H    -1.15572  -13.09224  -10.13344
       O    -1.63392  -13.08174  -10.97428
      H1    -2.46861  -13.51734  -10.76851
       H     1.26245  -14.27943   -8.79171
       O     2.05648  -14.85374   -8.76101
      H1     2.25842  -14.88737   -9.74072
       H     3.00625  -17.69670  -15.27590
       O     3.17400  -16.73726  -15.26932
      H1     3.69331  -16.60831  -14.48119
       H    -2.55615  -18.42586  -12.36491
       O    -3.32923  -18.33556  -12.94830
      H1    -3.02483  -18.78232  -13.73866
       H    -4.63589  -14.74715  -12.04027
       O    -4.53233  -13.80665  -11.83841
      H1    -4.36344  -13.33432  -12.70438
       H    -4.98006  -17.29062   -7.45855
       O    -5.31818  -17.46633   -6.55107
      H1    -6.26672  -17.65073   -6.75614
       H    -1.63108  -17.66925  -15.54260
       O    -0.94191  -17.98900  -14.94500
      H1    -0.59544  -18.79850  -15.33117
       H    -1.73428  -15.46210   -8.37047
       O    -1.98883  -15.77423   -9.23171
      H1    -1.44613  -16.55023   -9.28319

