60
frame 0 | Written by MDAnalysis XYZWriter (release 2.4.3)
       H    16.42346  -16.25007  -13.09319
       O    16.69241  -15.36752  -13.37379
      H1    17.56140  -15.50449  -13.75995
       H    17.10203  -10.44786   -9.27506
       O    17.90484  -10.45656   -9.83540
      H1    18.41782  -11.19702   -9.48610
       H    15.79909  -13.54513  -18.74490
       O    15.64848  -13.35802  -17.81184
      H1    15.15051  -14.15089  -17.54626
       H    18.69513   -7.53551  -12.30288
       O    18.74945   -7.21541  -13.23773
      H1    18.57170   -6.23364  -13.14524
       H    14.47394   -8.87260  -18.16776
       O    13.69717   -8.56091  -17.70832
      H1    12.94594   -8.84397  -18.23929
       H    14.59040  -13.53016  -14.61849
       O    14.45824  -14.09045  -13.85957
      H1    15.31551  -14.52881  -13.76903
       H    13.03039   -6.83402  -13.24062
       O    13.52542   -6.17815  -13.76391
      H1    14.38558   -6.39972  -13.46824
       H    15.66031  -11.59261  -11.78377
       O    15.72659  -12.51843  -11.51003
      H1    15.53731  -13.02387  -12.27967
       H    18.51853   -6.90875  -17.02038
       O    18.04662   -6.72589  -16.19256
      H1    18.47138   -7.41596  -15.62506
       H    14.60534   -5.22747  -16.26719
       O    15.46833   -4.86252  -16.53095
      H1    15.95441   -5.59186  -16.92130
       H    17.53816  -10.39993  -14.87566
       O    17.43434  -10.83211  -15.72907
      H1    17.09360  -10.14605  -16.33694
       H    16.73209  -13.83324  -10.56500
       O    17.46614  -14.41201  -10.41949
      H1    17.48421  -14.91885  -11.25881
       H    16.95164  -15.91806  -18.17278
       O    17.64325  -15.57628  -17.59704
      H1    17.35848  -14.69175  -17.42366
       H    16.92669   -9.16487  -18.04528
       O    16.45760   -8.91269  -17.25519
      H1    16.96094   -8.12766  -16.96526
       H    14.38520   -9.04051  -15.66836
       O    14.19977   -9.12631  -14.73670
      H1    14.72503   -8.45251  -14.30692
       H    18.46598   -8.77999  -10.27002
       O    18.65021   -7.87033  -10.53378
      H1    18.66107   -7.43203   -9.66588
       H    13.07535  -11.27913  -15.49850
       O    12.15430  -11.02291  -15.62099
      H1    11.70759  -11.33295  -14.80897
       H    15.39251   -7.67460  -11.67351
       O    15.74187   -7.63897  -12.58136
      H1    16.52619   -7.07523  -12.52820
       H    17.01969   -9.90864  -11.45469
       O    16.63622  -10.06906  -12.32683
      H1    16.25362   -9.24364  -12.55985
       H    15.58555  -11.94383  -15.95475
       O    14.76510  -11.90101  -15.43513
      H1    14.73801  -10.96385  -15.19889

