60
frame 0 | Written by MDAnalysis XYZWriter (release 2.4.3)
       H    -1.62937    9.47096    7.64547
       O    -2.42913    9.63272    8.05910
      H1    -2.79720    8.79658    8.32860
       H    -4.02219    4.28283   10.46519
       O    -3.48613    4.40580   11.25622
      H1    -3.87125    3.96582   11.98936
       H     2.17314    3.98133   10.05793
       O     2.86217    4.12563    9.44728
      H1     3.58911    3.77023    9.96608
       H     1.87495    4.47436    6.34421
       O     0.99791    4.68227    6.60529
      H1     1.10150    5.59496    6.97906
       H    -1.21617    4.74224   15.00610
       O    -2.00581    4.58171   15.48630
      H1    -1.75986    4.04708   16.28167
       H    -0.72668    4.89694   11.11328
       O    -0.86561    4.00153   10.80737
      H1    -1.81888    3.82536   10.90535
       H     0.52431    6.62760   10.13058
       O     0.44774    6.37043   11.03513
      H1     1.15435    6.86634   11.46490
       H    -0.62742    8.40181   12.24982
       O    -1.45773    8.82207   12.41647
      H1    -1.46113    9.68425   12.02480
       H    -3.35955    7.91354   11.90389
       O    -4.11336    7.48261   11.49467
      H1    -4.13070    6.55997   11.68128
       H    -2.95617    7.18064    9.66448
       O    -2.81350    7.00874    8.73671
      H1    -1.85172    6.88608    8.65548
       H     2.39161    9.34733   13.03004
       O     2.71593   10.25444   13.09791
      H1     1.88571   10.83780   13.16348
       H     1.39754    5.06475   14.31783
       O     2.05487    5.69707   14.68683
      H1     1.75546    5.85367   15.56812
       H    -1.20685    9.29013   14.48911
       O    -0.85617    8.90129   15.32047
      H1    -0.21296    9.52929   15.63279
       H     4.32349    4.33512   12.01170
       O     4.04651    5.08281   12.55584
      H1     3.52189    4.74412   13.30870
       H    -0.88043    3.51047    9.09709
       O    -0.94226    3.37467    8.11707
      H1    -0.22786    3.79477    7.70665
       H     4.25532    6.80059   11.91379
       O     4.43126    7.65224   11.39921
      H1     5.39366    7.65640   11.28428
       H     2.02002    6.97359    8.41874
       O     1.15196    7.01705    7.98315
      H1     0.94638    7.89809    7.63613
       H     3.40244    5.77226    8.98760
       O     3.77688    6.69505    8.93331
      H1     3.98455    6.91224    9.86211
       H     1.65666    7.18548   13.88268
       O     1.14294    7.92703   13.43867
      H1     0.50707    8.25776   14.09188
       H     0.07054    3.85753   12.33453
       O     0.59970    3.68997   13.11325
      H1     1.19798    3.00620   12.81893

