60
frame 0 | Written by MDAnalysis XYZWriter (release 2.4.3)
       H    16.42346  -16.25007  -13.09319
       O    16.69241  -15.36752  -13.37379
      H1    17.56140  -15.50449  -13.75995
       H    12.64257  -13.68153  -11.11742
       O    13.30798  -13.85295  -10.41938
      H1    14.11580  -13.60196  -10.89886
       H    12.81775  -18.22944  -16.21663
       O    12.52325  -17.48438  -16.76314
      H1    12.79829  -16.66618  -16.30635
       H    15.79909  -13.54513  -18.74490
       O    15.64848  -13.35802  -17.81184
      H1    15.15051  -14.15089  -17.54626
       H    14.08084  -16.31868  -17.35883
       O    14.70747  -15.82789  -16.80877
      H1    15.56250  -16.21974  -17.01457
       H    16.66884  -15.71557   -9.34386
       O    16.07755  -16.43000   -9.04187
      H1    16.17587  -16.37793   -8.09192
       H    14.59040  -13.53016  -14.61849
       O    14.45824  -14.09045  -13.85957
      H1    15.31551  -14.52881  -13.76903
       H    16.52262  -18.60451  -14.91825
       O    15.78633  -19.15148  -14.63423
      H1    15.58164  -18.86292  -13.73633
       H    17.56391  -18.00154   -9.64652
       O    18.28695  -18.61753   -9.86833
      H1    18.89894  -18.59740   -9.13221
       H    13.91936  -16.53613  -12.26581
       O    14.41329  -17.26341  -12.72418
      H1    14.10211  -18.01689  -12.21538
       H    15.66031  -11.59261  -11.78377
       O    15.72659  -12.51843  -11.51003
      H1    15.53731  -13.02387  -12.27967
       H    17.53816  -10.39993  -14.87566
       O    17.43434  -10.83211  -15.72907
      H1    17.09360  -10.14605  -16.33694
       H    16.73209  -13.83324  -10.56500
       O    17.46614  -14.41201  -10.41949
      H1    17.48421  -14.91885  -11.25881
       H    16.95164  -15.91806  -18.17278
       O    17.64325  -15.57628  -17.59704
      H1    17.35848  -14.69175  -17.42366
       H    18.44257  -15.92540   -8.79903
       O    19.17723  -16.39076   -8.38088
      H1    18.89867  -16.41808   -7.45324
       H    12.34092  -16.56123  -14.48657
       O    12.22439  -15.68946  -14.89350
      H1    12.94079  -15.16804  -14.55131
       H    13.59568  -15.50623   -9.85968
       O    13.51992  -16.46572   -9.93518
      H1    14.42065  -16.71937   -9.69068
       H    17.01969   -9.90864  -11.45469
       O    16.63622  -10.06906  -12.32683
      H1    16.25362   -9.24364  -12.55985
       H    15.58555  -11.94383  -15.95475
       O    14.76510  -11.90101  -15.43513
      H1    14.73801  -10.96385  -15.19889
       H    18.87602  -18.82171  -17.43612
       O    18.23954  -18.34199  -16.85948
      H1    17.88715  -17.62646  -17.38939

