60
frame 1 | Written by MDAnalysis XYZWriter (release 2.4.3)
       H    -0.46120    6.01621  -14.11959
       O    -0.72048    5.10358  -14.19846
      H1    -0.84694    4.99754  -13.27639
       H    -0.94583    7.65428  -17.92272
       O    -0.79095    8.00615  -17.03855
      H1    -0.95899    8.97256  -17.05724
       H     0.33452    7.42818   -9.70411
       O     0.26865    6.68502  -10.33634
      H1     0.99456    6.09641  -10.03704
       H     1.66704    3.37973  -14.54044
       O     2.02643    3.20843  -13.68080
      H1     1.25659    3.08132  -13.11552
       H    -0.31706   10.59635  -15.60161
       O    -0.82096   10.43892  -14.83108
      H1    -1.69970   10.43519  -15.21121
       H     4.06162    7.87898  -11.58489
       O     4.97947    7.91115  -11.25863
      H1     5.12857    8.77865  -11.05380
       H    -0.08448    2.05976  -12.00028
       O     0.11360    2.90726  -11.47532
      H1    -0.76240    3.36479  -11.36814
       H     3.22519    5.06776   -9.80844
       O     2.65044    4.74578  -10.50350
      H1     2.83410    5.28707  -11.29270
       H     0.75494    7.13811  -11.98669
       O     0.87129    7.23666  -12.90426
      H1     1.76155    6.83920  -13.10813
       H     1.24692   10.41964   -9.96801
       O     1.84964   11.00619  -10.43892
      H1     1.92295   11.79837   -9.93596
       H     1.37575    8.52870  -16.69174
       O     2.29448    8.71801  -16.92909
      H1     2.70504    9.22016  -16.17861
       H     4.13803    9.92123  -14.63303
       O     3.23043   10.13169  -14.96127
      H1     2.62922   10.01267  -14.21421
       H    -1.74939    6.60216  -10.28721
       O    -2.53420    7.06360  -10.60435
      H1    -2.17909    7.55882  -11.37642
       H    -0.55187    2.53634  -16.41446
       O    -0.30635    3.47293  -16.67321
      H1    -0.34019    4.07386  -15.92810
       H     3.68347    7.76020   -9.68939
       O     2.92580    7.60581   -9.11659
      H1     3.30882    7.38486   -8.26104
       H    -3.18469    8.16735  -13.64556
       O    -3.94305    7.75571  -14.09597
      H1    -3.60389    6.95458  -14.46127
       H    -0.77802    8.59105  -12.81412
       O    -1.74143    8.71489  -12.57090
      H1    -1.81733    9.67807  -12.32392
       H     1.92452   10.08338  -11.84744
       O     2.19502    9.45420  -12.54825
      H1     1.49361    8.71551  -12.57021
       H     0.13513    9.05607   -8.13380
       O     0.41183    8.98927   -9.06749
      H1     1.29347    8.57742   -9.03177
       H     2.67797    4.91611  -13.25199
       O     3.17961    5.71600  -13.18592
      H1     4.05697    5.53101  -13.55048

