60
frame 0 | Written by MDAnalysis XYZWriter (release 2.4.3)
       H     5.82528  -12.74062   15.21078
       O     5.17789  -12.06367   14.95917
      H1     4.62762  -11.93410   15.73537
       H     3.36212  -14.13041   12.73238
       O     3.14397  -13.20619   12.88283
      H1     3.88507  -12.93307   13.43849
       H     1.38716  -12.77488   12.76510
       O     0.47673  -13.02047   12.85537
      H1     0.15385  -12.20040   13.25846
       H    -1.23858  -14.87040   18.53344
       O    -1.87190  -15.55151   18.41675
      H1    -1.59483  -15.95488   17.55506
       H     3.23292  -10.18631   13.06162
       O     2.29060  -10.06349   12.93628
      H1     2.04810  -10.45168   12.09029
       H     1.61070  -10.20701   17.11452
       O     0.85439   -9.73264   16.75633
      H1     0.79484  -10.13996   15.87837
       H     1.24895  -14.16055   14.15158
       O     1.46313  -14.65478   14.94750
      H1     0.69512  -15.22278   15.09565
       H    -1.07011  -15.54199   15.66905
       O    -0.63805  -16.25680   16.13269
      H1    -0.51700  -16.96804   15.45737
       H     3.32856   -8.58791   17.07621
       O     3.63999   -7.88254   16.48239
      H1     4.49259   -8.21529   16.22101
       H     5.96696  -10.56457   18.64745
       O     5.35635  -10.95030   18.06606
      H1     4.93966  -11.62757   18.60201
       H     1.89078  -13.41884   16.08627
       O     2.02565  -12.63795   16.61025
      H1     2.56513  -12.92079   17.37704
       H     7.57727  -12.73456   16.76132
       O     7.02754  -13.33855   17.26190
      H1     6.34916  -12.75846   17.63844
       H     6.04199  -15.07452   12.59038
       O     5.77875  -15.89544   13.04239
      H1     5.34930  -15.59713   13.85249
       H     5.93309  -10.03693   16.36075
       O     6.13772   -9.23032   15.93773
      H1     6.35873   -9.51375   15.02873
       H    -1.23128  -13.30649   15.46691
       O    -1.55215  -13.90404   14.79449
      H1    -0.82880  -13.94592   14.14236
       H     0.98923  -16.47308   16.91357
       O     1.70251  -16.53805   17.55578
      H1     2.10362  -17.38700   17.29478
       H     0.36708  -12.44582   16.82777
       O    -0.57847  -12.37416   17.02482
      H1    -0.76793  -11.49147   16.67548
       H     3.18811  -15.72761   14.60219
       O     3.99590  -15.84334   15.14258
      H1     3.80711  -16.69143   15.57976
       H     0.81141  -10.14487   13.89813
       O    -0.01532  -10.56417   14.20031
      H1    -0.68540  -10.01660   13.79586
       H     4.08925  -15.18295   17.17075
       O     4.17018  -15.31747   18.13295
      H1     3.30258  -15.66594   18.41272

