60
frame 0 | Written by MDAnalysis XYZWriter (release 2.4.3)
       H    13.00046   -5.23809   12.87754
       O    13.37294   -5.33655   11.98648
      H1    13.12658   -6.23409   11.68312
       H    10.89856   -5.39502   12.89945
       O    10.72785   -4.96364   13.73938
      H1    11.56591   -4.92898   14.16785
       H    14.80457   -5.69778   10.63591
       O    15.68054   -5.41390   10.28819
      H1    16.20043   -6.21002   10.37400
       H     7.39764   -3.66380   12.73247
       O     7.87806   -4.24472   12.14947
      H1     8.59319   -3.65668   11.84018
       H    10.63625   -6.52861   10.34050
       O    10.62787   -6.76078   11.30967
      H1     9.74057   -7.12854   11.47682
       H    13.55426   -6.10529    6.74511
       O    13.43151   -6.03056    7.69003
      H1    12.50489   -5.83208    7.74154
       H    12.03455   -1.34192   10.68688
       O    11.57190   -0.54312   10.41080
      H1    11.62780    0.05029   11.16837
       H     9.12786   -2.45130    9.69036
       O     9.57656   -2.77437   10.47925
      H1    10.09973   -2.02623   10.77998
       H    15.87075   -5.30870   12.85309
       O    15.80959   -4.71110   13.61298
      H1    16.30623   -5.14209   14.31220
       H    14.41328   -8.30149   11.56204
       O    14.11989   -7.66806   10.91932
      H1    13.41194   -8.12309   10.43831
       H    11.57146   -3.64568    6.91422
       O    10.61189   -3.74120    6.94685
      H1    10.49296   -4.60136    7.39433
       H    13.24543   -2.91817    8.19864
       O    13.06795   -2.90579    7.26805
      H1    13.81043   -3.41876    6.91304
       H    11.54865   -3.57733   10.31783
       O    12.45252   -3.22693   10.39083
      H1    12.96876   -3.99902   10.65322
       H    14.15269   -4.45764   14.46585
       O    13.32143   -4.06665   14.75301
      H1    13.49101   -3.98172   15.71195
       H    12.82443   -2.76499   13.81388
       O    12.58503   -2.10001   13.17437
      H1    12.67546   -2.48367   12.26590
       H    15.90821   -5.49538    8.27006
       O    16.40351   -5.32386    7.46505
      H1    16.60480   -6.23470    7.16094
       H    16.42696   -3.58655   12.06654
       O    16.80162   -3.23035   11.23888
      H1    16.34130   -3.89424   10.66598
       H    13.52030   -0.62385   13.68377
       O    14.19368    0.08120   13.72725
      H1    14.10464    0.45108   14.62393
       H     9.94913   -3.33524   13.90030
       O     9.96967   -2.35914   13.89911
      H1    10.79710   -2.08574   13.50364
       H    10.47064   -6.96512    8.19708
       O    10.47462   -6.08784    8.58311
      H1     9.54910   -5.84495    8.53693

