60
frame 0 | Written by MDAnalysis XYZWriter (release 2.4.3)
       H    10.89856   -5.39502   12.89945
       O    10.72785   -4.96364   13.73938
      H1    11.56591   -4.92898   14.16785
       H     7.77223   -2.15752   13.85457
       O     7.00128   -2.65340   14.09936
      H1     7.32690   -3.20569   14.81718
       H     7.39764   -3.66380   12.73247
       O     7.87806   -4.24472   12.14947
      H1     8.59319   -3.65668   11.84018
       H    10.63625   -6.52861   10.34050
       O    10.62787   -6.76078   11.30967
      H1     9.74057   -7.12854   11.47682
       H     7.83584   -0.37994    7.49995
       O     7.30011    0.35729    7.67549
      H1     6.62349    0.30100    6.98936
       H    12.03455   -1.34192   10.68688
       O    11.57190   -0.54312   10.41080
      H1    11.62780    0.05029   11.16837
       H     9.12786   -2.45130    9.69036
       O     9.57656   -2.77437   10.47925
      H1    10.09973   -2.02623   10.77998
       H    11.57146   -3.64568    6.91422
       O    10.61189   -3.74120    6.94685
      H1    10.49296   -4.60136    7.39433
       H    11.36028    0.34365    8.82390
       O    11.37842    0.94118    8.06294
      H1    12.29111    1.24013    8.00666
       H     7.58886    2.68168   10.08883
       O     8.15429    1.89088   10.12963
      H1     7.96962    1.47537    9.27324
       H    13.24543   -2.91817    8.19864
       O    13.06795   -2.90579    7.26805
      H1    13.81043   -3.41876    6.91304
       H    11.54865   -3.57733   10.31783
       O    12.45252   -3.22693   10.39083
      H1    12.96876   -3.99902   10.65322
       H     7.20847   -5.74626    7.46236
       O     7.86883   -5.67045    8.17789
      H1     7.55949   -4.90633    8.69056
       H    12.82443   -2.76499   13.81388
       O    12.58503   -2.10001   13.17437
      H1    12.67546   -2.48367   12.26590
       H     8.04822    0.65815   13.27131
       O     7.62781    0.34531   12.49502
      H1     7.95532    0.95065   11.77315
       H     7.25331   -3.56367   10.67321
       O     6.72100   -3.17066    9.97172
      H1     6.20848   -2.46523   10.41527
       H     9.94913   -3.33524   13.90030
       O     9.96967   -2.35914   13.89911
      H1    10.79710   -2.08574   13.50364
       H    12.62867    2.20380   11.47682
       O    12.23510    1.75657   12.24841
      H1    12.90738    1.15198   12.56091
       H    10.47064   -6.96512    8.19708
       O    10.47462   -6.08784    8.58311
      H1     9.54910   -5.84495    8.53693
       H     9.51401   -2.61586    7.58067
       O     8.78986   -2.02608    7.79158
      H1     8.10076   -2.41949    7.25579

