60
frame 0 | Written by MDAnalysis XYZWriter (release 2.4.3)
       H   -12.53815    2.46938    9.84560
       O   -11.91238    1.74602    9.94189
      H1   -12.46957    1.12074   10.45911
       H   -17.95144    4.05654   15.04319
       O   -18.55076    4.52441   14.45502
      H1   -19.39325    4.39112   14.93245
       H   -15.92313    6.43082   13.99462
       O   -16.15558    5.60820   13.47494
      H1   -16.99244    5.37146   13.90581
       H   -11.74235    3.25498   15.18274
       O   -12.31507    3.99292   14.92227
      H1   -12.94385    4.04332   15.65364
       H   -12.87995    4.51979    9.42645
       O   -13.39132    4.06800    8.73932
      H1   -13.21268    4.66089    8.00632
       H   -17.16429    7.07670   10.19113
       O   -17.96256    7.27206   10.66004
      H1   -17.70638    7.58789   11.56506
       H   -15.32003    4.04990   12.86862
       O   -15.04355    3.14489   12.55650
      H1   -14.35552    3.37856   11.93454
       H   -12.51912   -0.66723   12.17408
       O   -13.14087    0.02984   11.92181
      H1   -13.27570    0.56070   12.72856
       H   -16.34187    4.92935    8.75370
       O   -16.23045    3.95671    8.74795
      H1   -15.28279    3.90042    8.70514
       H   -13.60160    2.11517   14.50088
       O   -13.29161    1.20052   14.43064
      H1   -12.33400    1.27020   14.52004
       H   -19.00139    6.00965   11.51974
       O   -19.30592    5.19341   11.89570
      H1   -18.81067    5.15103   12.70678
       H   -14.99287    4.40740   16.98420
       O   -14.03195    4.42349   17.05105
      H1   -13.88208    3.70303   17.66523
       H   -14.19467    8.06781   14.69604
       O   -15.03294    7.79294   14.26708
      H1   -15.37564    8.56751   13.82950
       H   -17.26093    3.53979   17.21487
       O   -16.72225    3.42414   16.40245
      H1   -16.41341    2.51803   16.45632
       H   -14.49038    7.45795   11.78230
       O   -15.07817    6.85855   11.34608
      H1   -15.64652    6.57737   12.05305
       H   -16.43182    2.01893   12.88849
       O   -16.93975    1.48712   13.54177
      H1   -17.42315    0.90758   12.98394
       H   -12.33400    5.46414   13.61755
       O   -12.15487    6.36011   13.33297
      H1   -11.20254    6.34958   13.20431
       H   -13.07524    4.91054   11.70507
       O   -12.72317    4.03886   11.49439
      H1   -12.00510    3.89069   12.12335
       H   -17.41679    3.20391    9.83115
       O   -18.21612    2.82845   10.21717
      H1   -18.50455    3.53924   10.78542
       H   -16.02313    0.89733   15.24236
       O   -16.03573    0.90351   16.17786
      H1   -16.97751    0.75198   16.37369

