60
frame 0 | Written by MDAnalysis XYZWriter (release 2.4.3)
       H    -7.37643    4.04598   18.21645
       O    -7.37543    4.54924   17.37882
      H1    -8.33348    4.56956   17.18114
       H   -15.92313    6.43082   13.99462
       O   -16.15558    5.60820   13.47494
      H1   -16.99244    5.37146   13.90581
       H   -11.74235    3.25498   15.18274
       O   -12.31507    3.99292   14.92227
      H1   -12.94385    4.04332   15.65364
       H    -9.87291    8.36071   17.93054
       O    -9.65493    9.20187   17.54572
      H1    -9.08667    8.94935   16.81672
       H   -10.55511    6.02931   18.45229
       O   -10.44959    6.91309   18.76877
      H1   -11.34119    7.23260   18.96668
       H   -10.07325    8.80058   12.60235
       O    -9.20105    8.77162   13.03929
      H1    -9.33056    8.08822   13.72749
       H   -11.32598    2.39885   17.72931
       O   -12.21107    2.42329   17.35148
      H1   -12.48535    1.52439   17.20077
       H   -11.02808   11.05440   14.57913
       O   -11.54476   10.83943   13.81303
      H1   -12.33860   11.35465   13.96053
       H   -12.26763    7.30493   16.49203
       O   -12.56760    7.84473   15.76605
      H1   -12.02865    7.45434   15.05338
       H   -13.20741   10.60679   18.11654
       O   -13.19159   11.54074   18.36060
      H1   -13.94607   11.67626   18.98312
       H    -8.85479    5.99993   14.47643
       O    -9.47137    6.66631   14.84935
      H1    -8.86778    7.24157   15.36999
       H   -14.99287    4.40740   16.98420
       O   -14.03195    4.42349   17.05105
      H1   -13.88208    3.70303   17.66523
       H   -14.19467    8.06781   14.69604
       O   -15.03294    7.79294   14.26708
      H1   -15.37564    8.56751   13.82950
       H    -9.96436    5.26232   15.93169
       O   -10.05233    4.71314   16.72838
      H1   -10.48446    3.92460   16.37719
       H    -7.17123    9.24710   15.98935
       O    -7.42784    8.31341   16.02410
      H1    -7.14374    8.05796   16.91176
       H   -13.71730    6.14976   17.77144
       O   -13.51297    6.78606   18.49028
      H1   -14.32622    7.30562   18.51779
       H   -16.10017    9.44436   19.70917
       O   -16.47598    9.39922   18.82737
      H1   -15.71300    9.39363   18.23051
       H   -12.33400    5.46414   13.61755
       O   -12.15487    6.36011   13.33297
      H1   -11.20254    6.34958   13.20431
       H    -9.24058   11.67542   15.87888
       O   -10.19219   11.64260   16.06619
      H1   -10.31361   10.97857   16.77135
       H   -15.24809    9.33137   16.43239
       O   -14.47900    9.40158   17.03926
      H1   -13.79554    8.92461   16.53452

