60
frame 0 | Written by MDAnalysis XYZWriter (release 2.4.3)
       H     5.38883    5.54738   17.74721
       O     5.33724    5.92747   16.84046
      H1     4.36939    5.92278   16.69652
       H    11.02797   10.06003   12.76039
       O    10.72891    9.54506   13.51237
      H1    11.49131    9.45836   14.09259
       H    10.45100    1.58843   19.15203
       O    10.80372    2.34383   18.63848
      H1    11.13217    2.97453   19.30421
       H     7.39230    8.17033   14.73315
       O     7.17536    8.10545   15.67082
      H1     6.58464    7.35472   15.75507
       H    12.07835   10.29660   18.65249
       O    12.92805   10.20468   18.19662
      H1    13.40805   11.02561   18.39021
       H    10.15026   10.22004   17.91063
       O    10.35521    9.95749   18.79794
      H1     9.75021    9.24315   18.97622
       H     9.31162   11.57806   15.80089
       O    10.14172   11.18852   16.14955
      H1    10.41298   10.58229   15.45806
       H    10.60389    6.73646   14.47828
       O     9.69669    6.97371   14.26624
      H1     9.77041    7.87642   13.90093
       H    12.54232    5.64079   15.20316
       O    12.05156    6.34980   15.62577
      H1    12.29811    6.29622   16.55353
       H     6.85035    4.62481   14.42196
       O     5.93000    4.93037   14.44743
      H1     5.75379    5.04092   15.39519
       H     7.27551    9.19480   12.89208
       O     7.40098    8.24584   13.04243
      H1     6.82716    7.90542   12.35976
       H    12.53894    8.17419   15.69921
       O    12.60537    9.09741   15.41254
      H1    12.54387    9.60620   16.23083
       H     8.39565    7.40100   16.70785
       O     9.03819    7.20102   17.42883
      H1     9.79582    7.01779   16.89060
       H     9.00544    5.24805   14.43219
       O     8.62527    4.37475   14.30807
      H1     8.68108    3.98174   15.16392
       H     6.02745    9.80949   15.87746
       O     5.11121    9.92371   16.02210
      H1     4.90379    9.13141   16.51381
       H     8.21364    2.59251   16.66055
       O     8.39601    3.51182   16.87454
      H1     7.48114    3.88421   16.87213
       H     5.08926    7.44044   17.64908
       O     4.46342    8.14434   17.82375
      H1     4.96066    8.57762   18.51589
       H    10.12337    5.71100   12.57179
       O    10.23222    5.76140   11.63933
      H1    10.18645    6.68264   11.45729
       H    13.02456    6.96429   18.96031
       O    12.63059    6.35417   18.34862
      H1    12.01530    5.81911   18.88604
       H    11.16228    1.63779   15.67295
       O    11.95845    1.90532   16.15848
      H1    11.57345    2.35195   17.00162

