60
frame 0 | Written by MDAnalysis XYZWriter (release 2.4.3)
       H    16.86080  -18.85832   -3.62000
       O    15.96901  -18.51392   -3.70010
      H1    15.68756  -18.69987   -4.61768
       H    18.74296  -16.48917   -2.83577
       O    17.86268  -16.35236   -2.42958
      H1    17.23580  -16.62563   -3.11247
       H    17.99629  -15.77747   -5.85755
       O    18.26576  -16.68560   -5.74414
      H1    19.05144  -16.56633   -5.19973
       H    17.65983  -13.74712   -6.94668
       O    17.15539  -14.58258   -6.96611
      H1    16.23131  -14.27966   -6.88391
       H    17.91541  -11.29690   -6.61542
       O    18.32201  -12.14451   -6.80848
      H1    19.12181  -12.06086   -6.25780
       H    15.00531  -12.99905   -2.50846
       O    15.06641  -12.22097   -1.94050
      H1    14.67891  -12.52498   -1.09431
       H    16.66884  -15.71557   -9.34386
       O    16.07755  -16.43000   -9.04187
      H1    16.17587  -16.37793   -8.09192
       H    17.56391  -18.00154   -9.64652
       O    18.28695  -18.61753   -9.86833
      H1    18.89894  -18.59740   -9.13221
       H    14.80645  -15.67842   -0.97194
       O    15.23878  -15.19319   -0.24980
      H1    15.41255  -15.86245    0.40792
       H    16.73209  -13.83324  -10.56500
       O    17.46614  -14.41201  -10.41949
      H1    17.48421  -14.91885  -11.25881
       H    18.44257  -15.92540   -8.79903
       O    19.17723  -16.39076   -8.38088
      H1    18.89867  -16.41808   -7.45324
       H    18.33678  -17.71812   -1.05272
       O    18.79632  -18.53733   -0.87358
      H1    18.66539  -18.54181    0.07159
       H    13.59568  -15.50623   -9.85968
       O    13.51992  -16.46572   -9.93518
      H1    14.42065  -16.71937   -9.69068
       H    14.43547  -13.55997   -6.62239
       O    14.34871  -14.51397   -6.53570
      H1    14.57253  -14.75413   -5.64337
       H    14.32546  -11.52980   -6.05167
       O    15.19535  -11.80004   -6.39440
      H1    15.78518  -11.51438   -5.69577
       H    19.12903  -14.29735    1.81406
       O    18.90167  -14.79384    1.01884
      H1    18.26511  -15.47432    1.34964
       H    14.22306  -17.30501   -2.32635
       O    14.07772  -16.39861   -2.67750
      H1    14.90760  -16.20918   -3.14720
       H    17.89670  -11.94173   -4.00726
       O    16.95266  -11.78955   -4.07792
      H1    16.63657  -11.68076   -3.17275
       H    16.94131  -13.74743   -0.94912
       O    17.60163  -13.83657   -1.66022
      H1    17.72870  -14.78823   -1.71226
       H    16.27499  -14.34548   -2.77401
       O    15.87686  -14.46665   -3.64840
      H1    16.31374  -13.70944   -4.11033

