60
frame 0 | Written by MDAnalysis XYZWriter (release 2.4.3)
       H    17.29158    0.82557  -10.87758
       O    16.90702    1.69254  -10.75507
      H1    16.02091    1.41036  -10.51469
       H    16.36602    0.06482   -4.85557
       O    15.97262    0.93409   -4.70413
      H1    15.40008    0.76515   -3.92913
       H    14.68307   -2.55877   -4.20127
       O    15.10455   -2.87028   -3.39121
      H1    15.03414   -3.84317   -3.46472
       H    18.61490    1.89312   -4.39918
       O    18.25227    2.49742   -5.03401
      H1    17.35018    2.22210   -5.18051
       H    16.47708   -3.42499  -13.94930
       O    15.67928   -3.09625  -13.53229
      H1    15.89881   -3.26058  -12.62008
       H    17.33803   -5.08776   -5.07257
       O    17.50380   -4.15234   -4.99713
      H1    18.28431   -4.14741   -4.43146
       H    14.94729   -2.12668  -11.15822
       O    15.66745   -2.65561  -10.78933
      H1    16.45191   -2.10033  -10.88812
       H    18.65061    2.17616   -8.85975
       O    17.98458    1.64965   -8.38940
      H1    17.26029    1.66248   -9.03904
       H    14.42447    0.78973   -5.85331
       O    13.81221    1.31461   -6.40776
      H1    13.68469    0.65946   -7.10993
       H    16.91076   -5.02656   -8.93176
       O    15.96752   -4.88288   -9.13984
      H1    15.90428   -4.15997   -9.79092
       H    18.37750   -1.43968   -8.13834
       O    17.66133   -1.85054   -7.62821
      H1    17.96422   -1.70170   -6.71925
       H    19.05412   -4.36279  -11.51358
       O    18.37447   -4.65677  -12.14239
      H1    18.46839   -4.13060  -12.92754
       H    18.37121   -0.96011  -12.16818
       O    17.95213   -0.90317  -11.32243
      H1    18.64494   -0.76013  -10.70599
       H    13.77406   -3.71607   -6.36804
       O    13.84476   -2.78396   -6.07582
      H1    14.27311   -2.32524   -6.82583
       H    15.11605   -1.93069   -9.25470
       O    15.06326   -1.27389   -8.51422
      H1    15.88122   -1.44325   -7.98479
       H    13.63219    1.32324   -9.40561
       O    14.53332    1.01825   -9.63209
      H1    14.66957    0.21678   -9.07157
       H    17.02863   -2.36921   -4.72171
       O    17.28481   -1.46830   -5.03055
      H1    18.18730   -1.39883   -4.65699
       H    14.46036   -5.07785   -7.85671
       O    13.77328   -5.25016   -7.19185
      H1    13.87829   -6.17223   -6.95320
       H    16.56840    2.74799   -7.30709
       O    15.69954    3.18481   -7.44658
      H1    15.09575    2.47145   -7.25391
       H    18.55204   -5.16316   -7.69544
       O    18.12164   -6.00398   -7.97060
      H1    17.85857   -6.36319   -7.08681

