60
frame 0 | Written by MDAnalysis XYZWriter (release 2.4.3)
       H   -12.53815    2.46938    9.84560
       O   -11.91238    1.74602    9.94189
      H1   -12.46957    1.12074   10.45911
       H    -9.29394    3.75099    9.46892
       O    -9.75440    3.23024    8.81187
      H1   -10.50765    2.89904    9.29177
       H   -12.87995    4.51979    9.42645
       O   -13.39132    4.06800    8.73932
      H1   -13.21268    4.66089    8.00632
       H   -10.39661    6.36597    8.84989
       O    -9.64598    6.52256    8.23227
      H1   -10.06367    6.66709    7.36877
       H   -15.32003    4.04990   12.86862
       O   -15.04355    3.14489   12.55650
      H1   -14.35552    3.37856   11.93454
       H   -12.41968    7.30155    9.28750
       O   -12.00476    6.44320    9.43217
      H1   -11.85028    6.42066   10.35908
       H   -11.70433    7.10945    6.20323
       O   -10.88385    7.09374    5.69766
      H1   -11.26017    7.23223    4.79048
       H   -15.83997    0.48608    6.75127
       O   -15.77822    1.42577    6.51093
      H1   -14.81218    1.50770    6.56071
       H   -12.56029    4.61957    6.10527
       O   -13.24151    5.22610    6.28971
      H1   -13.92561    4.92959    5.69286
       H   -10.62574    3.79422    5.36864
       O   -11.17084    3.27264    5.95556
      H1   -10.65646    3.12160    6.76342
       H   -16.34187    4.92935    8.75370
       O   -16.23045    3.95671    8.74795
      H1   -15.28279    3.90042    8.70514
       H   -12.22647    9.10836    9.89265
       O   -13.06573    8.93732    9.46974
      H1   -13.67850    9.47493   10.01163
       H   -14.49038    7.45795   11.78230
       O   -15.07817    6.85855   11.34608
      H1   -15.64652    6.57737   12.05305
       H   -12.73074    2.15672    7.17862
       O   -12.80440    1.21043    7.35790
      H1   -12.78082    1.21754    8.31425
       H   -12.33400    5.46414   13.61755
       O   -12.15487    6.36011   13.33297
      H1   -11.20254    6.34958   13.20431
       H   -13.07524    4.91054   11.70507
       O   -12.72317    4.03886   11.49439
      H1   -12.00510    3.89069   12.12335
       H    -9.59024    2.69543   12.51531
       O   -10.19118    3.15075   11.90291
      H1   -10.52815    2.40611   11.34683
       H    -9.21246    6.12406   11.31843
       O    -9.98365    5.82140   11.80124
      H1    -9.97685    4.90020   11.60789
       H   -15.17276   -0.04806    8.70020
       O   -15.54376    0.56431    9.35208
      H1   -16.04962    1.18047    8.81356
       H   -15.48961    7.04633    7.97801
       O   -16.04977    6.85502    8.74999
      H1   -15.46082    7.07853    9.47049

