60
frame 1 | Written by MDAnalysis XYZWriter (release 2.4.3)
       H     6.24088   -9.47319  -10.82817
       O     5.81001   -9.07961  -10.01153
      H1     4.96066   -8.65603  -10.22776
       H     0.39261  -10.54931  -11.54336
       O     1.26277  -10.16127  -11.80497
      H1     1.70632  -10.81535  -12.30791
       H     1.63537   -6.51643  -12.62825
       O     1.31823   -5.58467  -12.83881
      H1     0.68698   -5.67087  -13.60381
       H    -0.65951   -6.93984  -11.72359
       O    -1.28615   -7.63338  -11.83153
      H1    -2.12837   -7.16370  -11.51807
       H     3.60882   -9.52453   -9.21674
       O     3.36849   -8.56911   -9.12364
      H1     2.95408   -8.32371   -9.98059
       H     2.19980   -8.40438  -12.02948
       O     2.43136   -7.58310  -11.63067
      H1     3.37562   -7.42562  -11.65148
       H     3.91559  -11.61500   -8.37625
       O     3.34192  -11.35502   -9.09190
      H1     2.41896  -11.13037   -8.70431
       H     0.64397  -13.79135  -14.67549
       O     1.29334  -13.16876  -15.03432
      H1     0.73132  -12.40002  -15.15476
       H     2.12431   -8.29318   -7.64664
       O     1.53612   -8.37955   -6.88525
      H1     1.63350   -9.30354   -6.53575
       H    -0.80095  -13.68794  -11.26515
       O    -1.11664  -14.08259  -12.10154
      H1    -1.52321  -13.34662  -12.52373
       H    -0.74816   -9.19283  -14.79802
       O    -1.21749   -8.41573  -14.42961
      H1    -1.05318   -8.44961  -13.46195
       H    -1.99072  -10.49285  -10.91346
       O    -1.14883  -10.51180  -10.39259
      H1    -1.01562  -11.39966  -10.05295
       H     2.42215  -13.55804  -11.16895
       O     2.53571  -13.55622  -10.22743
      H1     2.87853  -12.68182  -10.06571
       H    -1.14555   -9.94452   -8.25689
       O    -1.46728  -10.00309   -7.34049
      H1    -1.10081  -10.80554   -7.02232
       H     5.31215  -10.21991  -14.28495
       O     4.71996  -10.99607  -14.58576
      H1     4.27861  -11.35258  -13.82282
       H     1.00232  -13.02602   -9.47177
       O     0.11581  -12.69412   -9.33291
      H1    -0.20622  -13.10496   -8.51045
       H    -3.20869  -12.69604  -14.13757
       O    -2.43874  -12.41563  -13.60825
      H1    -2.89758  -11.78333  -12.95689
       H    -2.15396   -8.49413   -9.87899
       O    -2.73944   -8.18579   -9.14329
      H1    -2.68760   -8.80002   -8.42342
       H    -1.18498  -11.83291  -14.91521
       O    -0.55775  -11.23575  -15.35208
      H1    -0.63886  -11.40545  -16.27823
       H     2.48183  -12.75920  -13.59984
       O     3.02025  -12.35048  -12.93608
      H1     3.71122  -12.95198  -12.54213

