60
frame 1 | Written by MDAnalysis XYZWriter (release 2.4.3)
       H     6.78541   16.82484   -8.87469
       O     7.50667   16.80651   -8.20344
      H1     6.99979   16.82287   -7.36827
       H     4.22201   12.85652   -8.26986
       O     3.87294   13.65711   -8.68447
      H1     3.09657   13.32025   -9.21490
       H     5.61928   16.32933   -1.37879
       O     5.83807   15.82485   -2.14215
      H1     6.27613   16.46729   -2.70490
       H     7.98845   10.69614   -6.02546
       O     8.12891    9.81203   -6.38251
      H1     7.24621    9.46010   -6.21052
       H    10.74519   13.26670   -8.78452
       O    10.28706   13.91703   -8.25842
      H1     9.42229   13.98026   -8.72262
       H     5.09192   13.92882   -3.92706
       O     4.80020   13.17680   -3.39825
      H1     4.53193   12.53218   -4.07499
       H     3.07806   14.77028   -5.98680
       O     2.76761   14.02933   -5.46357
      H1     2.35613   14.42810   -4.67313
       H     3.63324   15.00929   -7.63834
       O     3.78842   15.80160   -7.08160
      H1     3.09616   16.40284   -7.37337
       H     4.84442   13.66384  -10.35055
       O     5.63657   13.99533  -10.84487
      H1     5.96751   13.16214  -11.19455
       H     3.30751   10.81437   -4.59177
       O     4.13333   10.36629   -4.38819
      H1     3.91835    9.83985   -3.59665
       H     2.36083   12.23117   -6.16872
       O     1.93135   11.38410   -6.21009
      H1     2.40800   10.99822   -6.93091
       H     6.59991   10.62501   -8.64244
       O     7.27595   10.46719   -9.33079
      H1     7.12930    9.59350   -9.69461
       H     7.46573   14.99129   -8.45514
       O     7.38670   14.03621   -8.70882
      H1     6.81333   14.03157   -9.49889
       H    10.81000   16.35694   -5.72508
       O     9.94146   16.81401   -5.63235
      H1     9.38602   16.08286   -5.32026
       H    10.74402   12.76566   -5.44811
       O     9.86939   13.05555   -5.75235
      H1    10.01155   13.36331   -6.64440
       H     6.42635   13.71500   -7.27390
       O     6.05110   13.73309   -6.38347
      H1     6.74231   13.30776   -5.84486
       H     6.82110   15.71207   -5.42058
       O     6.26280   16.46095   -5.59962
      H1     5.45673   16.01004   -5.93818
       H     8.25587   12.36186   -4.30757
       O     7.42723   12.02851   -4.66833
      H1     6.98858   11.59567   -3.91394
       H     5.14556   11.82635   -6.82214
       O     4.89760   11.30755   -7.60729
      H1     5.07779   10.41627   -7.31380
       H     8.00471   14.84038   -3.83329
       O     8.22718   14.89972   -4.76198
      H1     8.78121   14.11933   -4.93462

