60
frame 1 | Written by MDAnalysis XYZWriter (release 2.4.3)
       H   -18.93775    3.37660   -5.20566
       O   -18.51540    4.28194   -5.23638
      H1   -17.67664    4.09956   -5.66786
       H   -18.86805    7.02111   -4.15302
       O   -18.24978    7.52124   -4.67108
      H1   -18.80940    8.12115   -5.17457
       H   -15.62152    3.75213   -5.82497
       O   -16.24069    3.13042   -6.23225
      H1   -15.89885    2.27923   -5.91969
       H   -13.54558    0.44116   -8.09437
       O   -14.38391    0.45843   -8.55135
      H1   -14.43820    1.38297   -8.85506
       H   -15.68287    6.55969   -5.77521
       O   -16.36374    6.40835   -6.43519
      H1   -17.09572    6.72135   -5.91759
       H   -18.40976    1.93594    0.26852
       O   -19.16393    2.08306   -0.36271
      H1   -18.90087    2.79938   -0.94563
       H   -12.45618    6.62876   -7.18759
       O   -13.39275    6.52530   -6.99495
      H1   -13.33144    6.24944   -6.07889
       H   -14.12382    4.88055   -3.67140
       O   -14.34487    4.75652   -4.63565
      H1   -13.47580    4.45855   -4.96635
       H   -17.42226    4.13075   -2.23383
       O   -17.73367    3.33913   -2.69695
      H1   -17.85278    3.64191   -3.60086
       H   -13.95499    0.87739   -3.89748
       O   -13.12360    0.48954   -4.14267
      H1   -12.44683    1.05207   -3.73134
       H   -17.11691    8.51881   -4.07300
       O   -16.59469    9.25527   -3.70165
      H1   -16.00928    9.50695   -4.40583
       H   -17.97977    5.30623  -10.48270
       O   -17.68132    5.72681   -9.67549
      H1   -17.69637    4.99324   -9.02930
       H   -16.03591    6.79140   -2.55722
       O   -15.15309    6.43000   -2.42255
      H1   -14.76813    6.96591   -1.71761
       H   -15.38696   -0.37591   -5.47349
       O   -15.69786    0.43574   -5.93093
      H1   -15.24088    0.39525   -6.75327
       H   -17.15628    2.56311   -7.70271
       O   -17.62921    2.39888   -8.50921
      H1   -16.89569    2.17556   -9.10249
       H   -16.61461    8.13670   -7.30833
       O   -17.24119    8.84742   -7.52821
      H1   -17.59682    8.52877   -8.35687
       H   -18.49307    5.70979   -0.65160
       O   -17.73137    5.61152   -1.26350
      H1   -17.35165    6.47441   -1.24699
       H   -14.67388    3.98482   -8.44359
       O   -13.72503    4.04254   -8.22402
      H1   -13.75031    4.81211   -7.63031
       H   -18.23325    0.88247   -7.66253
       O   -18.51882    0.25395   -6.98764
      H1   -17.96681   -0.51086   -7.12291
       H   -15.76514    2.57023   -2.90090
       O   -15.49201    1.65736   -2.76778
      H1   -16.26366    1.13736   -3.05544

