60
frame 0 | Written by MDAnalysis XYZWriter (release 2.4.3)
       H     4.35777   -7.84933   13.27427
       O     4.84494   -8.51051   12.74264
      H1     5.72175   -8.14598   12.69796
       H     5.82528  -12.74062   15.21078
       O     5.17789  -12.06367   14.95917
      H1     4.62762  -11.93410   15.73537
       H     2.47010   -8.30418   13.63955
       O     2.54900   -7.36300   13.87511
      H1     2.21497   -7.32458   14.79185
       H     3.36212  -14.13041   12.73238
       O     3.14397  -13.20619   12.88283
      H1     3.88507  -12.93307   13.43849
       H     1.38716  -12.77488   12.76510
       O     0.47673  -13.02047   12.85537
      H1     0.15385  -12.20040   13.25846
       H     3.23292  -10.18631   13.06162
       O     2.29060  -10.06349   12.93628
      H1     2.04810  -10.45168   12.09029
       H     3.26488  -11.23689   10.36359
       O     2.37373  -10.92459   10.27279
      H1     1.86957  -11.73344   10.10955
       H    -0.92969   -8.41157    8.52555
       O    -1.09435   -9.36287    8.63496
      H1    -0.66890   -9.58791    9.43342
       H     1.61070  -10.20701   17.11452
       O     0.85439   -9.73264   16.75633
      H1     0.79484  -10.13996   15.87837
       H     2.98478   -7.43458   10.94194
       O     3.38797   -7.47785   10.07226
      H1     2.63625   -7.65044    9.47779
       H     1.24895  -14.16055   14.15158
       O     1.46313  -14.65478   14.94750
      H1     0.69512  -15.22278   15.09565
       H     6.09335  -10.03416   12.91707
       O     6.94336  -10.28220   13.29980
      H1     7.54297   -9.71652   12.76159
       H     0.57965   -5.86628   11.59956
       O     1.08752   -6.67951   11.56330
      H1     1.49151   -6.75220   12.42986
       H     3.32856   -8.58791   17.07621
       O     3.63999   -7.88254   16.48239
      H1     4.49259   -8.21529   16.22101
       H     1.89078  -13.41884   16.08627
       O     2.02565  -12.63795   16.61025
      H1     2.56513  -12.92079   17.37704
       H     5.31571  -11.00527   10.15693
       O     5.15598  -11.94255   10.25695
      H1     5.03267  -12.14492    9.31826
       H     5.93309  -10.03693   16.36075
       O     6.13772   -9.23032   15.93773
      H1     6.35873   -9.51375   15.02873
       H     0.41929  -10.04994    7.87340
       O     1.40797  -10.21676    7.76824
      H1     1.67354  -10.41180    8.68801
       H    -0.85006   -9.42273   11.73808
       O    -0.05211   -9.60578   11.19418
      H1     0.40892   -8.72711   11.17461
       H     0.81141  -10.14487   13.89813
       O    -0.01532  -10.56417   14.20031
      H1    -0.68540  -10.01660   13.79586

