60
frame 0 | Written by MDAnalysis XYZWriter (release 2.4.3)
       H    17.69453   13.46025  -11.93100
       O    17.81685   13.32148  -10.96747
      H1    16.94066   12.97909  -10.70170
       H    19.09040   13.38907   -8.09744
       O    18.33294   13.93676   -8.27348
      H1    18.23972   13.83558   -9.25895
       H    18.72042    9.87306   -9.57943
       O    18.94994   10.20496  -10.48025
      H1    18.49350    9.55564  -11.04517
       H    16.86602   10.08393  -13.16142
       O    17.67420   10.63358  -13.02162
      H1    17.56999   11.05843  -12.15881
       H    17.75022   17.79561  -10.98478
       O    17.49493   17.25320  -11.74320
      H1    17.74554   16.37366  -11.43671
       H    14.22518   11.79723   -8.53052
       O    13.30827   11.60804   -8.41580
      H1    13.25114   10.64516   -8.31165
       H    15.46663   13.28042  -13.90779
       O    15.15545   13.37581  -12.99758
      H1    15.13253   14.33347  -12.82816
       H    17.24132   16.51681   -8.53949
       O    18.19277   16.62950   -8.65084
      H1    18.62654   15.80291   -8.48274
       H    15.36339    9.56599   -8.38063
       O    16.04313   10.09522   -8.82491
      H1    16.83596    9.98250   -8.28288
       H    16.09119   12.29748   -8.71913
       O    15.48681   12.90079   -9.20895
      H1    15.58144   13.74909   -8.80578
       H    13.31201    8.82270  -13.00499
       O    13.95329    8.15674  -12.75286
      H1    14.53043    8.54043  -12.04792
       H    18.20720   11.88168  -16.28889
       O    18.27534   12.74487  -15.87539
      H1    18.22354   12.52061  -14.92496
       H    14.12061   15.41740   -9.48866
       O    15.03529   15.68893   -9.32279
      H1    15.32484   15.93705  -10.21807
       H    16.08867   13.52889   -5.94129
       O    16.19514   14.31912   -6.49540
      H1    16.96960   14.11278   -7.04159
       H    13.56356   11.94698  -10.43617
       O    13.08969   12.35358  -11.17056
      H1    13.80832   12.67569  -11.76638
       H    18.14259    8.40260   -7.88679
       O    18.47413    9.31994   -7.85916
      H1    19.42124    9.18933   -7.79725
       H    12.77375   13.82556  -10.40979
       O    12.46538   14.68305  -10.11630
      H1    12.47236   15.11530  -10.95662
       H    16.48380    7.77805  -11.16215
       O    16.10454    8.66378  -11.34042
      H1    15.94814    9.03139  -10.44062
       H    19.12050   14.53030  -13.26025
       O    18.18933   14.30934  -13.44070
      H1    17.96481   14.96635  -14.07527
       H    14.38527   16.95790  -12.19464
       O    14.92706   16.14268  -12.33104
      H1    15.82052   16.47566  -12.36612

