60
frame 0 | Written by MDAnalysis XYZWriter (release 2.4.3)
       H    -1.53422    1.23458    7.99917
       O    -1.21551    1.48021    7.11875
      H1    -0.26022    1.41871    7.25996
       H    -3.18897    0.93095    9.61048
       O    -2.96371    1.81453    9.31285
      H1    -3.06920    2.36439   10.11290
       H     1.34034    3.10793    8.53893
       O     1.57196    4.03317    8.81326
      H1     0.78221    4.46067    9.13869
       H    -0.73640    6.22741    9.56060
       O    -0.83580    5.26341    9.57315
      H1    -1.37033    5.10267    8.78291
       H     0.66600   -2.57797    9.11490
       O    -0.18991   -2.81216    8.70276
      H1    -0.02172   -3.72637    8.34988
       H     3.60404   -1.78002    9.21249
       O     3.06282   -2.57653    9.37333
      H1     3.69857   -3.18593    9.80131
       H     3.28249    5.10296   11.01668
       O     3.88370    4.36351   10.94125
      H1     3.69624    4.07213   10.03268
       H     3.18885    2.38661   11.26963
       O     3.00040    1.43893   11.19939
      H1     2.06198    1.47193   10.96394
       H    -3.61135    1.80823   12.72682
       O    -3.49596    2.37657   11.98349
      H1    -4.03837    3.15186   12.21323
       H     0.22980    0.84662   10.98987
       O     0.45401    1.42207   10.27427
      H1     0.05442    2.27104   10.44343
       H    -2.02340    4.75882    6.59185
       O    -2.14609    4.30747    7.44641
      H1    -1.74239    3.44501    7.29498
       H     2.05575    0.03890    6.51943
       O     2.05836   -0.69818    5.88157
      H1     1.11220   -0.92582    5.79225
       H     0.15067    2.99008   13.07729
       O     0.58608    2.87014   13.93578
      H1     0.30384    3.69603   14.41111
       H     4.16171    0.09614   10.13327
       O     4.39331   -0.19677    9.25152
      H1     5.34748   -0.41069    9.22345
       H     0.74731    1.03141   12.89003
       O     0.15673    0.28837   12.69969
      H1     0.72282   -0.40319   12.28810
       H    -0.55644   -1.53910   15.15150
       O    -1.07340   -1.44878   14.33931
      H1    -0.63993   -0.77619   13.83199
       H    -0.92018    4.33263   11.07693
       O    -0.90145    3.75670   11.84052
      H1    -1.77386    3.36980   11.82934
       H    -1.07996   -0.71319    6.18555
       O    -0.47951   -1.46008    6.16695
      H1    -0.47260   -1.76518    7.06858
       H     0.71136   -2.40953   10.89418
       O     1.03054   -1.50347   10.69490
      H1     1.88023   -1.66317   10.25578
       H     3.39574    1.26736    7.67682
       O     2.43577    1.25309    7.73140
      H1     2.24516    0.64802    8.43564

