60
frame 0 | Written by MDAnalysis XYZWriter (release 2.4.3)
       H     2.72320    7.26190   -5.02108
       O     3.15729    6.63960   -5.62502
      H1     4.03266    6.48555   -5.20713
       H     7.53761    1.89440   -6.34245
       O     6.69794    1.52523   -6.63346
      H1     6.16902    2.29251   -6.88547
       H     3.43675    1.75004   -8.91611
       O     4.29319    1.72146   -8.51133
      H1     4.52317    0.79992   -8.50759
       H     7.70767    7.48913   -4.87216
       O     8.57724    7.24982   -4.56858
      H1     8.35972    6.82443   -3.73137
       H     7.48390    2.09304   -9.64703
       O     7.63041    3.01240   -9.88038
      H1     8.54325    3.01223  -10.18239
       H     5.94343    1.48087   -4.82613
       O     5.71087    1.10470   -3.94798
      H1     4.79036    1.37993   -3.77952
       H     8.53094    7.04061   -9.19087
       O     9.37363    6.67841   -9.31073
      H1     9.37641    6.09586   -8.51649
       H     5.17033    5.69874  -10.40908
       O     5.33481    5.86176   -9.45973
      H1     5.72153    5.04001   -9.13527
       H     8.02710    2.58533   -2.49119
       O     7.62535    3.11374   -3.17805
      H1     6.88685    2.54149   -3.45268
       H     2.98358    4.07465   -7.08124
       O     3.39747    3.40360   -6.52580
      H1     3.70930    2.78460   -7.18631
       H     5.61470    5.48743   -4.36908
       O     5.36583    5.29847   -5.28916
      H1     4.68925    4.60092   -5.23320
       H     7.21121    4.18746   -7.01279
       O     6.57502    4.24482   -7.74761
      H1     7.09132    3.75464   -8.39303
       H     8.69235    6.54355  -11.05619
       O     8.09950    6.55237  -11.81964
      H1     7.39220    5.91052  -11.56963
       H     5.60147    9.11701   -6.09909
       O     6.09467    8.27715   -6.14749
      H1     5.54451    7.69710   -6.69139
       H     5.92201   -0.22366   -7.17660
       O     5.24280   -0.90240   -7.30270
      H1     5.75829   -1.69855   -7.41227
       H     6.26763    8.69425   -9.11435
       O     6.93997    8.07952   -9.44102
      H1     6.46613    7.26185   -9.64202
       H     6.09420    1.24974  -12.54574
       O     6.96080    1.66308  -12.62179
      H1     6.96586    2.31645  -11.92008
       H     8.59478    3.15294   -4.69957
       O     8.84373    3.24999   -5.61400
      H1     9.54390    2.60077   -5.74164
       H     4.48127    6.75588   -8.38105
       O     3.87936    7.39536   -7.96509
      H1     3.66616    6.95811   -7.13342
       H     9.17755    6.15930   -5.90589
       O     9.62753    5.65072   -6.58028
      H1     9.67722    4.74331   -6.23927

