60
frame 1 | Written by MDAnalysis XYZWriter (release 2.4.3)
       H    13.79707  -11.48018    7.92798
       O    13.05181  -11.02423    7.52525
      H1    12.82974  -11.54751    6.72788
       H    14.34062  -15.74064   11.13681
       O    15.04976  -16.25293   10.69193
      H1    15.22207  -17.01532   11.28382
       H    12.68641   -8.06006    5.90099
       O    13.44153   -8.52671    6.22831
      H1    13.23970   -9.48115    6.15111
       H    16.64956  -13.67980    4.83451
       O    16.18484  -14.27965    5.42917
      H1    15.40149  -13.73385    5.67297
       H    13.41307  -14.03809    5.64494
       O    13.92235  -13.71095    6.42940
      H1    14.01844  -14.54179    6.91287
       H    15.29178  -12.08064    9.71429
       O    14.51216  -12.56911    9.41270
      H1    14.78035  -13.30752    8.85929
       H    16.94033  -14.25100    7.09703
       O    17.38782  -14.05920    7.91922
      H1    18.11297  -13.43798    7.66771
       H    17.25282  -17.01196    9.05655
       O    17.01185  -16.85780    8.12366
      H1    17.33655  -15.99219    7.88696
       H    11.09386  -12.67832    9.40057
       O    10.66519  -12.03918    8.86728
      H1    11.42410  -11.67450    8.41220
       H    13.60046  -17.58229    8.97029
       O    13.26514  -18.47375    9.15049
      H1    14.03941  -19.00706    9.01561
       H    10.06212  -14.38122    7.49366
       O     9.86898  -14.61332    6.56435
      H1     9.97533  -13.75748    6.07826
       H    17.08363  -11.33258   12.18971
       O    16.50888  -11.88047   12.75047
      H1    15.72543  -11.33898   12.90381
       H    11.63973  -14.99716    9.22605
       O    10.67343  -15.00798    9.20586
      H1    10.49637  -14.74958   10.12445
       H    16.14427  -14.90832   11.74081
       O    16.96673  -14.48319   11.95662
      H1    16.75368  -13.56534   12.13342
       H    17.57485  -11.53563    9.59823
       O    16.85362  -11.45770    8.94395
      H1    16.86605  -12.35529    8.58344
       H    13.71673  -16.70960    6.82497
       O    14.19886  -16.28455    7.51204
      H1    15.12600  -16.49480    7.31281
       H    16.06141   -8.11526    9.00321
       O    16.67890   -8.47148    8.38206
      H1    16.49117   -9.41588    8.42431
       H    17.58076  -17.83195   11.89673
       O    18.02193  -17.13862   11.35255
      H1    17.77229  -16.27846   11.70242
       H    11.83954  -12.58151   11.50229
       O    12.21270  -13.20331   10.83603
      H1    13.07191  -12.78024   10.62642
       H    12.83770  -15.59943   12.43300
       O    13.50602  -14.94208   12.27696
      H1    13.06738  -14.20825   11.79204

