60
frame 1 | Written by MDAnalysis XYZWriter (release 2.4.3)
       H    -9.15076   -4.58448  -14.24839
       O    -8.28545   -4.77600  -14.58517
      H1    -7.63218   -4.58859  -13.89239
       H    -8.59546  -11.80625  -16.66395
       O    -7.78217  -11.43026  -17.01315
      H1    -7.09311  -12.04220  -16.75139
       H   -10.28820   -9.93444  -15.01315
       O   -10.78137   -9.10939  -14.81716
      H1   -10.68375   -8.62242  -15.64234
       H    -6.65672   -6.22704  -16.85963
       O    -7.06741   -6.79496  -16.18630
      H1    -7.66425   -6.23184  -15.68094
       H    -5.53248   -7.74495  -14.96103
       O    -4.98112   -8.02072  -14.22411
      H1    -5.10436   -8.96333  -14.19926
       H   -13.70801   -6.88199  -18.14194
       O   -13.05649   -7.19917  -18.76547
      H1   -12.37442   -7.57435  -18.12476
       H    -2.82066   -6.43316  -13.63300
       O    -3.08175   -5.64632  -14.07414
      H1    -3.56235   -5.96946  -14.84415
       H    -7.01675  -13.50603  -19.26260
       O    -7.11452  -12.56625  -19.39036
      H1    -7.48536  -12.24520  -18.56254
       H   -10.15575   -7.86649  -17.23429
       O   -10.92172   -7.34177  -17.06135
      H1   -10.65039   -6.45085  -17.27776
       H    -6.54667  -11.29160  -12.68868
       O    -7.24320  -11.68709  -13.23941
      H1    -7.21324  -12.63174  -13.06503
       H    -7.89663   -9.65437  -17.40338
       O    -8.17441   -8.74330  -17.64434
      H1    -7.50886   -8.20360  -17.19811
       H    -4.51080   -9.96474  -16.82023
       O    -5.36425   -9.86361  -16.42122
      H1    -6.00016   -9.91524  -17.13811
       H    -6.53788   -7.21165  -13.03351
       O    -7.10557   -6.89212  -12.33141
      H1    -7.86559   -7.50716  -12.33268
       H    -8.15354   -3.62629  -15.87556
       O    -8.11789   -3.22680  -16.75484
      H1    -7.30720   -3.55793  -17.13687
       H   -10.50708   -7.23064  -12.18175
       O    -9.85048   -7.93114  -12.14106
      H1   -10.22786   -8.55508  -12.78179
       H    -4.37297   -7.72795  -17.40581
       O    -3.98306   -6.95159  -16.99617
      H1    -3.27987   -7.37363  -16.45644
       H   -10.75784   -4.61104  -18.01495
       O    -9.83318   -4.88895  -17.97511
      H1    -9.38593   -4.23332  -17.44857
       H    -5.63738   -4.72074  -18.23856
       O    -5.61838   -4.72904  -17.27723
      H1    -4.79525   -5.21161  -17.09238
       H   -11.72528  -10.99030  -16.26610
       O   -12.09378  -11.11670  -17.16956
      H1   -12.80768  -11.74994  -17.07907
       H    -8.85664  -11.54988  -14.54469
       O    -9.63829  -11.70950  -15.07490
      H1    -9.78440  -12.65636  -14.90649

