60
frame 0 | Written by MDAnalysis XYZWriter (release 2.4.3)
       H    -7.28984    8.65087   -9.26344
       O    -6.43466    8.59360   -8.78958
      H1    -6.53354    7.77657   -8.27262
       H    -3.79502   10.15800   -4.44730
       O    -4.34741   10.87603   -4.04654
      H1    -5.25397   10.51771   -4.04636
       H   -10.59912   12.21945   -7.45569
       O    -9.92610   12.70333   -7.94871
      H1   -10.37767   13.53142   -8.10679
       H    -5.64704   11.96706   -9.30249
       O    -6.26218   12.30535   -8.62442
      H1    -5.70427   12.95431   -8.15352
       H    -7.92787   14.21622   -4.74142
       O    -7.09486   13.77750   -4.42587
      H1    -6.63800   14.55502   -4.07167
       H    -8.37293   12.92198   -2.08321
       O    -8.93123   12.15770   -2.17824
      H1    -8.94411   11.73734   -1.30135
       H   -10.67583   11.65464  -11.10155
       O   -10.33684   11.08977  -10.43210
      H1   -10.08391   11.63457   -9.67797
       H    -5.94135    7.53760   -4.03210
       O    -6.78548    7.93655   -3.72253
      H1    -7.07841    8.55284   -4.41544
       H    -4.38624   13.91644   -5.80873
       O    -5.11815   13.66767   -6.38503
      H1    -5.88605   13.60757   -5.79532
       H    -6.64160    5.18716   -7.47893
       O    -6.65705    6.15577   -7.34814
      H1    -7.35005    6.27321   -6.66819
       H    -7.58050    6.67642   -4.42071
       O    -8.07823    5.99033   -4.88792
      H1    -7.44247    5.23247   -4.91259
       H    -6.78200   11.97606   -4.25055
       O    -7.05496   11.03240   -4.21642
      H1    -7.96758   11.08898   -3.90314
       H   -10.48900   10.72510   -6.08218
       O   -10.17208   10.06260   -6.68647
      H1    -9.22463   10.17350   -6.82028
       H   -10.92054   12.72793   -4.57022
       O   -11.31766   11.88860   -4.88440
      H1   -11.43133   11.32173   -4.11106
       H    -9.47712   13.98558   -6.48523
       O    -9.72792   14.15463   -5.58899
      H1    -9.81149   15.11252   -5.60989
       H    -3.75497    9.96539   -9.93663
       O    -4.49338    9.62226  -10.40415
      H1    -5.03824    9.13736   -9.79199
       H    -5.29201   10.09137   -5.91178
       O    -5.43907    9.14633   -6.12669
      H1    -6.09554    9.20625   -6.82153
       H    -7.14715   11.24669   -7.53734
       O    -7.62975   10.70918   -6.89951
      H1    -7.16176   10.90879   -6.08232
       H    -5.81420    8.77501   -2.29609
       O    -5.42364    8.65606   -1.40741
      H1    -5.40892    9.55638   -1.06016
       H   -10.51312    8.38540   -8.02663
       O   -10.70172    7.48893   -8.35635
      H1   -11.63296    7.44434   -8.51540

