60
frame 0 | Written by MDAnalysis XYZWriter (release 2.4.3)
       H    -7.03818   -5.10541   15.74014
       O    -6.85096   -5.41800   14.85723
      H1    -6.05258   -4.92185   14.62208
       H    -1.27662   -7.11082   17.39501
       O    -1.63569   -7.52536   16.62111
      H1    -1.52282   -8.44414   16.81078
       H     1.01257   -6.00700   16.80043
       O     0.75754   -5.85523   15.88572
      H1    -0.06151   -6.35452   15.82114
       H    -3.80856   -0.70104   15.45384
       O    -4.06805   -1.20677   16.23561
      H1    -5.04787   -1.14536   16.16534
       H     1.11867   -4.54964   14.93269
       O     1.11024   -3.82821   14.29100
      H1     1.03969   -3.07706   14.86640
       H    -4.59188   -7.38967   14.71072
       O    -5.37432   -7.80960   15.10852
      H1    -6.00805   -7.08340   15.10193
       H     0.70779   -5.67475   19.07878
       O     1.50113   -5.40855   18.57669
      H1     1.39209   -4.45946   18.46631
       H    -4.34903   -7.38389   18.10338
       O    -4.46373   -8.10986   18.69979
      H1    -5.40728   -8.39321   18.56611
       H    -4.27084   -2.06623   18.76785
       O    -3.91388   -1.30295   19.26970
      H1    -3.55468   -0.71982   18.59422
       H    -2.43948    0.62594   17.88321
       O    -2.84514    1.50046   17.83794
      H1    -3.41940    1.36034   17.04834
       H    -1.46569   -5.16290   13.83006
       O    -1.39578   -4.29048   13.45446
      H1    -0.56623   -3.94772   13.77951
       H    -4.95448   -4.24852   18.33431
       O    -5.30933   -3.52319   18.82798
      H1    -6.15082   -3.36182   18.37103
       H    -0.69551   -1.73451   18.24757
       O    -1.05548   -0.98417   17.78455
      H1    -0.39892   -0.29536   18.02549
       H    -0.55644   -1.53910   15.15150
       O    -1.07340   -1.44878   14.33931
      H1    -0.63993   -0.77619   13.83199
       H    -3.22469   -2.72528   15.52579
       O    -3.17342   -3.66451   15.37592
      H1    -2.49385   -3.74512   14.69090
       H    -3.16721   -4.75967   16.94123
       O    -3.50275   -5.12556   17.77856
      H1    -2.89489   -4.80435   18.45565
       H    -2.75515  -10.95828   18.56278
       O    -2.49259  -10.13574   18.15903
      H1    -3.21511   -9.51816   18.38718
       H    -4.61795   -4.85786   12.82552
       O    -4.79642   -4.06490   13.36783
      H1    -4.31374   -4.19603   14.20724
       H    -7.70672   -4.39889   17.99630
       O    -7.47388   -3.89191   17.23263
      H1    -8.24071   -3.30172   17.14124
       H    -2.93856   -7.56013   13.83325
       O    -2.95808   -6.74504   14.31233
      H1    -2.70824   -6.97314   15.25101

