60
frame 0 | Written by MDAnalysis XYZWriter (release 2.4.3)
       H    -9.77854   -5.25899    0.09564
       O    -9.39195   -4.56820    0.59974
      H1    -9.78029   -3.77630    0.21084
       H    -4.91602   -3.30978    6.77170
       O    -5.23299   -4.06549    6.25818
      H1    -4.61764   -4.75128    6.50334
       H    -3.81661   -6.45110    3.58240
       O    -3.87213   -6.33341    2.63143
      H1    -4.06634   -5.39975    2.58077
       H    -4.88677   -2.84841   -0.58104
       O    -4.24997   -2.36511   -1.09549
      H1    -4.61688   -2.36019   -2.00226
       H    -7.74415   -2.26411    2.77926
       O    -8.17869   -2.52047    1.94476
      H1    -8.64194   -1.71773    1.73453
       H    -9.54329   -4.52221    5.97867
       O    -8.60734   -4.46420    5.69854
      H1    -8.69846   -4.47492    4.72609
       H    -4.17370   -0.35603    5.06465
       O    -3.36940   -0.01659    5.46534
      H1    -3.70458    0.72673    5.98356
       H    -8.00512   -1.73911    4.57254
       O    -7.27282   -2.36182    4.50133
      H1    -7.63773   -3.09767    4.99191
       H    -5.99070   -8.21641    0.43703
       O    -5.06728   -8.26354    0.81458
      H1    -5.04472   -7.51970    1.44310
       H    -5.33533    1.64317    2.60103
       O    -5.69905    1.12982    1.88558
      H1    -5.87083    1.78889    1.21399
       H    -2.67175   -3.05548   -0.74131
       O    -1.76247   -3.40884   -0.52729
      H1    -1.93486   -4.25148   -0.08337
       H    -4.39697   -6.47129   -1.74043
       O    -4.38701   -6.14834   -0.81500
      H1    -4.49741   -6.95920   -0.33287
       H    -7.55596   -4.84764   -0.05333
       O    -6.95329   -5.05094   -0.80249
      H1    -6.05921   -5.03337   -0.44557
       H    -6.37472   -3.33383    1.28234
       O    -5.49312   -3.73179    1.18817
      H1    -5.05780   -3.41425    2.01501
       H    -0.85334   -0.54807    1.88527
       O    -1.20110    0.30736    1.68410
      H1    -2.02037    0.16540    1.19381
       H    -1.01349   -2.84702    5.02611
       O    -1.19160   -3.48773    4.30363
      H1    -0.29790   -3.75994    4.08621
       H    -0.46311   -2.72468    2.76401
       O    -0.33633   -2.29253    1.92543
      H1    -0.87954   -2.78006    1.28295
       H    -3.84422   -0.41921   -0.47468
       O    -3.64001   -0.08767    0.43068
      H1    -4.49127    0.02565    0.89433
       H    -2.37539   -5.82480    1.29919
       O    -1.58140   -5.95629    0.77359
      H1    -0.90193   -6.16634    1.42005
       H    -4.42843   -3.92463    4.31414
       O    -3.98793   -3.63101    3.51009
      H1    -3.08986   -3.40554    3.82333

