60
frame 0 | Written by MDAnalysis XYZWriter (release 2.4.3)
       H    18.74296  -16.48917   -2.83577
       O    17.86268  -16.35236   -2.42958
      H1    17.23580  -16.62563   -3.11247
       H    17.99629  -15.77747   -5.85755
       O    18.26576  -16.68560   -5.74414
      H1    19.05144  -16.56633   -5.19973
       H    17.65983  -13.74712   -6.94668
       O    17.15539  -14.58258   -6.96611
      H1    16.23131  -14.27966   -6.88391
       H    15.55818  -10.67784   -7.73353
       O    15.48494  -10.07203   -8.49750
      H1    14.70074  -10.42123   -8.90270
       H    17.10203  -10.44786   -9.27506
       O    17.90484  -10.45656   -9.83540
      H1    18.41782  -11.19702   -9.48610
       H    17.91541  -11.29690   -6.61542
       O    18.32201  -12.14451   -6.80848
      H1    19.12181  -12.06086   -6.25780
       H    15.00531  -12.99905   -2.50846
       O    15.06641  -12.22097   -1.94050
      H1    14.67891  -12.52498   -1.09431
       H    17.47176   -8.73660   -5.86464
       O    17.57555   -9.57911   -6.29682
      H1    18.32575   -9.40575   -6.91565
       H    16.66884  -15.71557   -9.34386
       O    16.07755  -16.43000   -9.04187
      H1    16.17587  -16.37793   -8.09192
       H    16.73209  -13.83324  -10.56500
       O    17.46614  -14.41201  -10.41949
      H1    17.48421  -14.91885  -11.25881
       H    18.44257  -15.92540   -8.79903
       O    19.17723  -16.39076   -8.38088
      H1    18.89867  -16.41808   -7.45324
       H    14.43547  -13.55997   -6.62239
       O    14.34871  -14.51397   -6.53570
      H1    14.57253  -14.75413   -5.64337
       H    14.32546  -11.52980   -6.05167
       O    15.19535  -11.80004   -6.39440
      H1    15.78518  -11.51438   -5.69577
       H    18.46598   -8.77999  -10.27002
       O    18.65021   -7.87033  -10.53378
      H1    18.66107   -7.43203   -9.66588
       H    17.89670  -11.94173   -4.00726
       O    16.95266  -11.78955   -4.07792
      H1    16.63657  -11.68076   -3.17275
       H    17.11713   -7.31491   -4.43743
       O    16.86192   -7.02109   -5.34467
      H1    16.00460   -7.39077   -5.51220
       H    17.97297   -8.68440   -2.63919
       O    17.19195   -8.53921   -3.18833
      H1    16.55485   -8.37881   -2.47766
       H    16.94131  -13.74743   -0.94912
       O    17.60163  -13.83657   -1.66022
      H1    17.72870  -14.78823   -1.71226
       H    16.27499  -14.34548   -2.77401
       O    15.87686  -14.46665   -3.64840
      H1    16.31374  -13.70944   -4.11033
       H    14.33918   -8.18793   -5.62392
       O    14.58092   -7.88195   -6.53577
      H1    14.71302   -8.69486   -7.02980

