60
frame 0 | Written by MDAnalysis XYZWriter (release 2.4.3)
       H    -3.63089   -9.45609   -4.56614
       O    -4.56936   -9.29282   -4.62896
      H1    -4.70145   -8.84608   -5.46533
       H    -2.55159  -13.18000   -4.36344
       O    -3.49939  -12.91842   -4.44332
      H1    -3.91871  -13.74459   -4.71808
       H    -3.49587  -16.73746   -5.23391
       O    -2.76489  -17.25320   -4.91962
      H1    -2.62011  -17.90469   -5.63741
       H    -6.31820  -12.81846   -2.92022
       O    -6.94798  -13.07644   -3.64838
      H1    -7.28873  -13.92269   -3.35845
       H    -4.15814  -12.68908   -2.71738
       O    -4.84667  -12.41690   -2.07144
      H1    -5.14737  -13.26800   -1.72031
       H    -1.48496  -15.35105   -2.52009
       O    -1.50317  -15.09472   -3.44487
      H1    -2.06960  -15.77891   -3.78777
       H     0.23112  -12.19321   -4.38214
       O    -0.61401  -12.61488   -4.21109
      H1    -0.36202  -13.54167   -4.21295
       H    -0.51739  -12.58831   -8.36972
       O     0.20627  -12.76127   -8.92938
      H1     0.77750  -11.98888   -8.77824
       H    -5.93675  -13.80389   -7.61771
       O    -6.55355  -14.41886   -8.05960
      H1    -7.00318  -13.77407   -8.57211
       H    -1.37085  -10.83755   -5.02598
       O    -1.41768   -9.88133   -5.11540
      H1    -1.22281   -9.58615   -4.20858
       H    -0.40277  -14.93891   -6.15682
       O    -0.92655  -14.67793   -6.93955
      H1    -1.82476  -14.49454   -6.57703
       H    -2.24474  -10.92858   -8.23730
       O    -1.84692  -11.60763   -7.68252
      H1    -2.63379  -12.03753   -7.32842
       H    -8.08921  -10.42900   -6.39841
       O    -8.93402  -10.65114   -6.82667
      H1    -8.73434  -11.44582   -7.33718
       H    -8.50598  -16.07361   -6.29691
       O    -8.43383  -15.26339   -5.79424
      H1    -7.88729  -14.70900   -6.35865
       H    -5.21413  -15.84357   -5.85204
       O    -4.84200  -15.21518   -5.20742
      H1    -5.50008  -15.29922   -4.53917
       H    -5.56871  -10.54882   -9.17611
       O    -6.51325  -10.76991   -9.09420
      H1    -6.94718   -9.91724   -8.97406
       H    -4.20798  -12.67020   -6.06047
       O    -4.48283  -12.51663   -6.96167
      H1    -5.31755  -12.00964   -6.89342
       H    -3.56365  -10.34777  -10.19060
       O    -3.84305  -10.26636   -9.25155
      H1    -3.54743   -9.35018   -9.09708
       H    -5.94321  -10.58261   -4.98380
       O    -6.57492  -11.00562   -5.55034
      H1    -6.69979  -11.89127   -5.14247
       H    -1.73428  -15.46210   -8.37047
       O    -1.98883  -15.77423   -9.23171
      H1    -1.44613  -16.55023   -9.28319

