60
frame 1 | Written by MDAnalysis XYZWriter (release 2.4.3)
       H   -15.83312   12.50929   17.88839
       O   -15.97561   11.61471   17.50933
      H1   -15.73731   11.07498   18.31360
       H   -18.22013    5.64581   19.45976
       O   -17.42765    6.11456   19.88326
      H1   -17.30546    6.84336   19.30164
       H   -14.38240   12.46218   16.19847
       O   -13.88788   13.07237   15.59753
      H1   -14.54708   13.31851   14.90309
       H   -14.64020   15.09839   14.04955
       O   -15.55159   14.77402   13.91001
      H1   -16.09991   14.87216   14.69493
       H   -12.12412   17.53912   17.32225
       O   -12.64153   16.80348   17.18982
      H1   -13.52879   17.07487   17.15395
       H   -15.26550   18.45039   17.70437
       O   -15.12516   18.49391   16.74991
      H1   -14.65730   19.36860   16.58136
       H   -10.61442   11.98453   16.79765
       O   -10.91626   12.53910   16.09960
      H1   -11.83186   12.21912   15.91256
       H   -13.99884   10.49634   14.95786
       O   -13.41763   10.12301   15.59096
      H1   -14.10821    9.58144   16.06882
       H   -17.73582    7.80310   16.56316
       O   -18.19249    8.04389   17.36808
      H1   -18.27643    9.01345   17.33397
       H   -19.78264   11.79606   14.05851
       O   -19.54649   12.41618   14.81951
      H1   -19.23104   11.79695   15.49893
       H   -12.59937   16.02600   15.30580
       O   -12.87174   15.87788   14.33403
      H1   -12.45003   15.05114   14.08686
       H   -12.99894    6.58847   16.95159
       O   -13.02756    7.40915   17.53156
      H1   -12.10999    7.45660   17.77394
       H   -11.61727   13.52668   17.53819
       O   -11.92964   13.72289   18.44780
      H1   -11.14927   13.98921   18.95654
       H   -17.58232   13.88388   15.59808
       O   -17.18342   14.65506   16.01917
      H1   -17.87634   15.37065   16.02408
       H   -18.39871   15.21984   13.10898
       O   -19.00067   15.38859   12.37564
      H1   -19.49494   16.17452   12.61556
       H   -17.76319   11.32590   17.69885
       O   -18.52695   10.79837   17.41510
      H1   -19.39629   11.03075   17.80912
       H   -12.19254    9.09164   15.09375
       O   -11.36868    8.82672   14.57482
      H1   -10.75334    9.47510   14.93048
       H   -14.25768   14.24918   17.97397
       O   -15.19093   14.35587   18.15043
      H1   -15.66993   14.44668   17.29881
       H   -14.24406    7.85103   18.90183
       O   -15.14032    7.88712   19.29536
      H1   -15.11928    7.15262   19.93815
       H   -10.52581    9.51801   18.19871
       O   -10.06836   10.25941   17.79360
      H1    -9.16062   10.08527   17.96538

