60
frame 0 | Written by MDAnalysis XYZWriter (release 2.4.3)
       H   -12.53815    2.46938    9.84560
       O   -11.91238    1.74602    9.94189
      H1   -12.46957    1.12074   10.45911
       H   -15.42757    4.15673    4.42526
       O   -15.76401    4.92683    4.94524
      H1   -16.59841    4.66169    5.36238
       H   -12.87995    4.51979    9.42645
       O   -13.39132    4.06800    8.73932
      H1   -13.21268    4.66089    8.00632
       H   -10.39661    6.36597    8.84989
       O    -9.64598    6.52256    8.23227
      H1   -10.06367    6.66709    7.36877
       H   -13.65602    2.58304    4.06116
       O   -14.01085    3.24486    3.44948
      H1   -13.44395    3.13408    2.69561
       H   -12.41968    7.30155    9.28750
       O   -12.00476    6.44320    9.43217
      H1   -11.85028    6.42066   10.35908
       H   -11.70433    7.10945    6.20323
       O   -10.88385    7.09374    5.69766
      H1   -11.26017    7.23223    4.79048
       H   -15.83997    0.48608    6.75127
       O   -15.77822    1.42577    6.51093
      H1   -14.81218    1.50770    6.56071
       H   -12.56029    4.61957    6.10527
       O   -13.24151    5.22610    6.28971
      H1   -13.92561    4.92959    5.69286
       H   -14.92374    6.36929    3.68847
       O   -15.11909    6.78272    2.85585
      H1   -15.79280    6.22404    2.50198
       H   -11.67155    1.72237    5.01898
       O   -12.09953    1.11464    4.40358
      H1   -12.39901    0.41556    4.97326
       H   -10.62574    3.79422    5.36864
       O   -11.17084    3.27264    5.95556
      H1   -10.65646    3.12160    6.76342
       H   -16.34187    4.92935    8.75370
       O   -16.23045    3.95671    8.74795
      H1   -15.28279    3.90042    8.70514
       H   -12.52777    7.88378    3.24436
       O   -11.66384    7.46184    3.00916
      H1   -11.93099    6.70535    2.49142
       H   -12.73074    2.15672    7.17862
       O   -12.80440    1.21043    7.35790
      H1   -12.78082    1.21754    8.31425
       H   -13.17970    9.50187    7.72775
       O   -12.77872    9.82738    6.89218
      H1   -13.50877    9.88899    6.25265
       H   -15.48961    7.04633    7.97801
       O   -16.04977    6.85502    8.74999
      H1   -15.46082    7.07853    9.47049
       H    -9.46480    5.52854    4.33041
       O    -9.38600    4.55657    4.45855
      H1    -8.58770    4.50849    5.05700
       H   -14.42382    9.21391    3.35824
       O   -13.71202    9.20651    4.00598
      H1   -13.39739   10.14683    3.94865
       H   -15.63377    8.71547    6.67107
       O   -15.20132    7.93462    6.30970
      H1   -14.62245    8.24578    5.61651

