60
frame 0 | Written by MDAnalysis XYZWriter (release 2.4.3)
       H   -16.47782   -3.92673  -15.72708
       O   -17.11157   -4.48332  -16.20013
      H1   -17.97696   -4.23386  -15.82362
       H   -10.19382   -9.62099  -14.87216
       O   -11.11950   -9.39453  -14.83645
      H1   -11.18780   -8.61424  -15.37933
       H   -13.79891   -9.47968  -13.18182
       O   -13.25610   -9.88517  -12.46196
      H1   -13.14255   -9.14056  -11.85420
       H   -14.76206   -5.88248  -12.02048
       O   -13.85111   -5.81964  -12.33543
      H1   -13.87249   -5.00312  -12.79533
       H   -16.79314   -7.65848  -11.09886
       O   -16.73236   -7.42241  -12.05247
      H1   -17.68217   -7.39184  -12.30493
       H   -17.15348   -1.08918  -13.71488
       O   -17.31328   -0.39468  -13.06537
      H1   -16.77131   -0.61808  -12.29276
       H   -12.20973   -1.39482  -18.72963
       O   -13.07641   -1.67385  -19.02012
      H1   -13.32003   -2.39934  -18.45162
       H   -11.50722   -4.03584  -14.58797
       O   -11.99023   -3.58841  -15.29419
      H1   -11.76173   -2.63953  -15.28348
       H   -14.18836   -7.05359  -17.58680
       O   -13.59983   -7.18439  -18.30324
      H1   -12.73858   -7.37457  -17.86147
       H   -10.73285   -8.64210  -17.31443
       O   -11.24980   -7.84125  -17.13291
      H1   -10.54716   -7.15642  -17.01168
       H   -16.25888   -6.15136  -16.15311
       O   -15.79660   -6.98531  -16.19160
      H1   -16.50199   -7.65221  -16.43249
       H   -13.13435   -1.55779  -12.63155
       O   -13.90897   -2.04869  -12.35485
      H1   -14.38363   -2.14012  -13.20872
       H   -14.13540   -6.92416  -13.80793
       O   -13.85742   -7.69871  -14.30879
      H1   -14.51308   -7.73649  -15.02923
       H   -15.01331   -2.20555  -15.54470
       O   -14.44210   -2.58487  -14.84961
      H1   -13.60132   -2.81512  -15.29309
       H   -16.42568  -11.26609  -14.63031
       O   -16.01049  -12.00575  -15.12991
      H1   -15.54575  -11.63990  -15.90558
       H   -17.86132   -8.97324  -15.72892
       O   -17.76149   -8.85539  -16.68022
      H1   -17.06495   -9.45578  -16.91345
       H   -13.14126   -5.29118  -18.24768
       O   -12.84656   -4.45221  -17.80167
      H1   -12.35580   -4.78339  -17.00435
       H   -17.46315  -10.11684  -13.21286
       O   -16.98044   -9.69196  -13.93327
      H1   -16.65722   -8.89138  -13.55336
       H   -16.81008   -0.61575  -15.87333
       O   -16.81148   -1.57226  -15.63323
      H1   -17.25982   -1.94098  -16.40761
       H   -14.58727  -10.10665  -16.70811
       O   -15.34488  -10.09824  -17.30904
      H1   -15.32175  -10.96326  -17.68359

