60
frame 0 | Written by MDAnalysis XYZWriter (release 2.4.3)
       H    -7.68811  -16.58284   15.75438
       O    -6.79611  -16.36391   16.03234
      H1    -6.60560  -15.58498   15.46617
       H    -1.23858  -14.87040   18.53344
       O    -1.87190  -15.55151   18.41675
      H1    -1.59483  -15.95488   17.55506
       H    -4.29358  -15.05308   15.86853
       O    -4.52063  -15.22738   14.95498
      H1    -4.19466  -14.41466   14.55892
       H     1.24895  -14.16055   14.15158
       O     1.46313  -14.65478   14.94750
      H1     0.69512  -15.22278   15.09565
       H    -1.07011  -15.54199   15.66905
       O    -0.63805  -16.25680   16.13269
      H1    -0.51700  -16.96804   15.45737
       H    -1.31573  -14.18076   11.17323
       O    -1.65199  -15.03583   10.87289
      H1    -1.13199  -15.21285   10.08525
       H    -6.07455  -17.13024   12.21095
       O    -6.18016  -16.73374   11.36304
      H1    -5.25885  -16.49063   11.17768
       H    -3.37374  -17.91165   17.98892
       O    -4.15902  -17.39813   17.77077
      H1    -4.64642  -17.39358   18.58582
       H    -7.36638  -17.97037   13.41685
       O    -6.46977  -17.97760   13.71025
      H1    -6.42961  -17.35284   14.43950
       H    -3.38985  -16.44451   14.08281
       O    -2.87269  -17.23229   13.77858
      H1    -2.30312  -16.87014   13.08327
       H    -4.04103  -12.46143   13.09070
       O    -3.75316  -13.34363   12.89067
      H1    -3.08067  -13.48049   13.61356
       H    -5.67512  -14.51588   18.70847
       O    -4.75441  -14.51602   18.42218
      H1    -4.46969  -15.42628   18.62927
       H    -5.53429  -13.74132   10.47077
       O    -4.60844  -14.11967   10.46830
      H1    -4.25215  -13.80829   11.32218
       H    -2.68583  -17.55137   10.11933
       O    -3.42343  -16.98880   10.35313
      H1    -3.06352  -16.17698   10.72361
       H    -7.67628  -14.55305   13.05389
       O    -7.53704  -14.22550   12.14769
      H1    -6.82567  -14.73114   11.75295
       H     1.55476  -18.53967   11.95264
       O     0.63800  -18.66766   12.19744
      H1     0.68901  -18.79699   13.13904
       H    -1.23128  -13.30649   15.46691
       O    -1.55215  -13.90404   14.79449
      H1    -0.82880  -13.94592   14.14236
       H    -5.90414  -11.80325   16.10861
       O    -5.67095  -11.79634   15.17708
      H1    -4.71350  -11.64835   15.21158
       H    -7.02003  -13.22177   14.57409
       O    -7.62728  -13.90304   14.82695
      H1    -8.45551  -13.42031   14.97853
       H    -0.07763  -17.01265   12.54636
       O    -0.20169  -16.13372   12.86559
      H1    -0.46566  -15.64864   12.05775

