60
frame 0 | Written by MDAnalysis XYZWriter (release 2.4.3)
       H    12.67592  -12.92362   -1.99700
       O    12.02759  -12.72094   -2.67638
      H1    12.56748  -12.59939   -3.46910
       H    14.57889   -9.33601   -1.10302
       O    13.82526   -9.85118   -1.42711
      H1    14.17998  -10.75030   -1.50237
       H    10.13154  -10.35711   -3.72067
       O    10.84304  -10.03896   -3.12949
      H1    10.92648  -10.75184   -2.51086
       H    12.20453   -6.16470   -1.51083
       O    13.16801   -6.19302   -1.37193
      H1    13.32863   -5.33815   -0.93229
       H    10.14777   -7.07236   -3.53660
       O     9.66806   -7.77136   -3.06202
      H1    10.26841   -8.54833   -3.13247
       H    15.00531  -12.99905   -2.50846
       O    15.06641  -12.22097   -1.94050
      H1    14.67891  -12.52498   -1.09431
       H    11.83701  -12.54399   -5.60332
       O    12.59417  -12.05085   -5.30374
      H1    12.26946  -11.13689   -5.36213
       H    12.34985  -11.78659    0.14185
       O    12.92624  -12.56104    0.27735
      H1    12.37830  -13.15674    0.82483
       H    13.54868   -7.54943    0.54002
       O    13.42764   -8.13070    1.34303
      H1    12.96527   -8.85938    0.90006
       H    11.08715   -9.81531    0.06301
       O    11.90900  -10.18873    0.36039
      H1    12.53195   -9.98664   -0.33590
       H     8.45974   -9.09784   -0.73818
       O     9.36013   -9.40205   -0.62049
      H1     9.35375  -10.08044   -1.32473
       H    14.60364   -7.23513   -1.03356
       O    15.46686   -7.64583   -1.13760
      H1    15.91817   -7.42631   -0.30542
       H    17.89670  -11.94173   -4.00726
       O    16.95266  -11.78955   -4.07792
      H1    16.63657  -11.68076   -3.17275
       H    16.99250   -9.35357    1.32034
       O    17.46715  -10.15275    1.60031
      H1    18.36353   -9.88304    1.85663
       H    15.39235   -6.22392   -4.36892
       O    14.67114   -5.92615   -3.80485
      H1    14.90161   -6.26085   -2.93180
       H    17.97297   -8.68440   -2.63919
       O    17.19195   -8.53921   -3.18833
      H1    16.55485   -8.37881   -2.47766
       H    13.79761   -9.34205   -3.45292
       O    13.59089   -9.29527   -4.38936
      H1    12.66684   -8.98615   -4.40713
       H    17.63519  -13.04397    0.99200
       O    16.75442  -12.68707    1.11317
      H1    16.92980  -11.72988    1.19163
       H    12.61599   -6.28892   -3.92347
       O    11.70357   -6.36455   -4.19233
      H1    11.72353   -6.85154   -5.04098
       H    15.24513  -12.17122    2.43546
       O    14.39851  -11.72876    2.53568
      H1    13.90883  -12.02041    1.75385

