60
frame 0 | Written by MDAnalysis XYZWriter (release 2.4.3)
       H    -3.88993   17.86291    7.94892
       O    -4.45245   17.49761    8.65082
      H1    -4.76222   18.31488    9.06086
       H     3.32505   14.90796    8.70746
       O     2.98610   15.81448    8.60478
      H1     2.02217   15.69186    8.62116
       H     0.48109   13.60372    9.13757
       O     1.02986   12.87163    9.47680
      H1     0.41342   12.33397    9.90764
       H    -1.13753   12.49187    6.49048
       O    -0.68824   11.61628    6.55283
      H1     0.19501   11.90005    6.29809
       H     2.29148   13.32702    5.45667
       O     1.81446   12.50973    5.52250
      H1     2.03166   12.16430    6.40984
       H    -3.64762   16.65689   11.07485
       O    -3.51902   15.71799   11.01431
      H1    -4.13947   15.30000   11.60500
       H     0.87221   18.61188    6.30584
       O     1.71593   19.04211    6.23408
      H1     2.06464   18.95991    7.14255
       H     3.31635   15.38312    6.98537
       O     3.62464   15.14854    6.11216
      H1     3.41020   15.92791    5.60541
       H    -2.55223   18.08161    9.23363
       O    -1.89522   18.71535    9.60048
      H1    -1.35660   18.84934    8.82442
       H     0.41670   15.57726   12.93767
       O     1.36675   15.43042   13.10413
      H1     1.54642   14.63094   12.54618
       H    -1.64188   14.74979   11.84437
       O    -1.30246   14.21514   12.55251
      H1    -1.82202   13.43343   12.51363
       H    -0.47625   15.93711    9.36774
       O     0.02518   15.41025    8.69728
      H1    -0.66914   14.79770    8.36066
       H     3.50828   13.22828   11.29488
       O     2.60985   13.55661   11.49732
      H1     2.23679   13.38254   10.63548
       H    -2.63972   14.21928    7.36015
       O    -1.74070   13.92642    7.21059
      H1    -1.36060   14.55625    6.58154
       H    -0.63492   17.68785   11.17771
       O    -0.34482   16.81216   11.37198
      H1     0.56340   16.90878   11.69736
       H    -1.26245   14.83501    4.63752
       O    -0.43987   15.08048    5.06576
      H1     0.05234   15.37800    4.27505
       H    -4.08484   14.57958    9.66199
       O    -3.90946   13.85324    9.02038
      H1    -4.82461   13.68991    8.68891
       H    -1.43327   11.80090    8.33042
       O    -1.98605   11.70473    9.12991
      H1    -2.69938   12.36075    9.04364
       H    -1.10555   11.37828   10.62714
       O    -0.26624   11.06766   11.03578
      H1    -0.38414   11.30667   11.95901
       H    -0.59541   16.89518    7.37437
       O    -0.67447   17.80543    7.13046
      H1    -0.90924   17.77422    6.17774

