60
frame 1 | Written by MDAnalysis XYZWriter (release 2.4.3)
       H    14.55413    2.42680   11.35718
       O    15.11974    1.85871   10.80074
      H1    15.97526    2.23846   11.06025
       H    15.61540   -5.70804   11.48935
       O    15.25659   -5.02915   12.04277
      H1    15.92073   -4.89659   12.72849
       H    15.88412   -4.18818    8.77103
       O    16.75505   -4.04347    9.19717
      H1    17.03835   -4.87924    9.53679
       H    17.89763   -3.84937    7.66311
       O    18.76972   -3.70973    7.28335
      H1    18.69739   -4.15839    6.41910
       H    16.18964   -1.23595   10.18975
       O    16.25484   -0.83117    9.33960
      H1    17.09927   -0.40884    9.36753
       H    18.86157   -0.07218   11.86846
       O    18.03303   -0.08068   12.35943
      H1    17.70270   -0.97073   12.18060
       H    17.17526   -3.97481   14.51073
       O    16.51201   -4.67310   14.29207
      H1    15.81818   -4.48573   14.93362
       H    17.51178   -7.27896   10.32844
       O    17.74232   -6.33441   10.46287
      H1    18.42346   -6.16078    9.81529
       H    16.73008    0.13026   15.19059
       O    17.62785    0.18422   15.44987
      H1    18.12515   -0.08624   14.66407
       H    11.89579   -2.07776    9.51949
       O    12.61479   -2.55528    9.08631
      H1    13.26808   -2.67558    9.80637
       H    14.30833   -3.60070   11.72352
       O    13.73640   -2.87843   11.52174
      H1    14.13715   -2.11049   11.94872
       H    14.30957    0.28286    7.48403
       O    14.33922    1.07774    8.01806
      H1    14.82321    0.76643    8.79675
       H    17.09862   -1.22548    7.61312
       O    17.57932   -1.14790    6.79066
      H1    18.16366   -1.92602    6.77167
       H    12.30375   -3.27729   12.53740
       O    11.59630   -3.62812   13.09667
      H1    10.74200   -3.31424   12.72529
       H    17.24408   -3.13100   12.17499
       O    16.91432   -2.62875   11.41335
      H1    16.48298   -3.27138   10.82429
       H    18.31391    3.00512   11.71290
       O    17.68030    2.47367   11.23818
      H1    17.67814    1.66618   11.77996
       H    15.18615   -1.50344   15.46928
       O    14.72457   -0.73349   15.14458
      H1    13.85084   -0.79504   15.57174
       H    14.87476    0.32280   12.23296
       O    14.40161   -0.45863   12.59988
      H1    14.53519   -0.38377   13.54720
       H    18.73750    1.12974    8.11671
       O    18.56632    0.82189    9.01148
      H1    18.31864    1.64864    9.47351
       H    17.82587   -7.78573   15.13805
       O    17.14553   -7.48721   14.51721
      H1    17.08344   -6.55340   14.64120

