60
frame 0 | Written by MDAnalysis XYZWriter (release 2.4.3)
       H    -8.88986   16.27658   -4.15847
       O    -8.96914   16.87042   -4.92640
      H1    -9.67950   17.46361   -4.63456
       H   -12.71030   16.25966   -6.61400
       O   -11.79607   16.47942   -6.67427
      H1   -11.54092   15.91892   -7.41789
       H   -12.64907   16.58801   -2.35134
       O   -12.75819   16.77286   -1.41546
      H1   -12.90905   15.91258   -0.97328
       H   -10.60015   12.90528   -1.95997
       O   -11.50328   13.25411   -1.89226
      H1   -12.07361   12.55301   -2.20143
       H   -10.59912   12.21945   -7.45569
       O    -9.92610   12.70333   -7.94871
      H1   -10.37767   13.53142   -8.10679
       H    -7.92787   14.21622   -4.74142
       O    -7.09486   13.77750   -4.42587
      H1    -6.63800   14.55502   -4.07167
       H   -12.43153   18.30233   -6.58977
       O   -12.42129   19.24694   -6.38773
      H1   -13.20401   19.36214   -5.86211
       H    -6.01587   15.00211   -2.49091
       O    -5.22376   15.39136   -2.89620
      H1    -4.45750   15.00958   -2.45287
       H    -8.37293   12.92198   -2.08321
       O    -8.93123   12.15770   -2.17824
      H1    -8.94411   11.73734   -1.30135
       H   -11.87136   15.46241   -9.21537
       O   -11.10381   15.07817   -8.73782
      H1   -10.35369   15.37646   -9.29271
       H    -4.38624   13.91644   -5.80873
       O    -5.11815   13.66767   -6.38503
      H1    -5.88605   13.60757   -5.79532
       H    -9.65864   15.63130   -1.96430
       O    -9.94094   15.44483   -2.86597
      H1   -10.67588   14.84179   -2.74958
       H    -8.93833   18.36938   -8.20950
       O    -8.53679   17.52206   -7.91601
      H1    -8.95887   17.35963   -7.05305
       H    -8.07871   18.97708   -4.14530
       O    -7.30298   19.21010   -3.59168
      H1    -6.56715   18.65993   -3.93382
       H    -6.78200   11.97606   -4.25055
       O    -7.05496   11.03240   -4.21642
      H1    -7.96758   11.08898   -3.90314
       H   -10.48900   10.72510   -6.08218
       O   -10.17208   10.06260   -6.68647
      H1    -9.22463   10.17350   -6.82028
       H   -10.92054   12.72793   -4.57022
       O   -11.31766   11.88860   -4.88440
      H1   -11.43133   11.32173   -4.11106
       H    -9.47712   13.98558   -6.48523
       O    -9.72792   14.15463   -5.58899
      H1    -9.81149   15.11252   -5.60989
       H    -8.98434   16.28274  -10.83088
       O    -8.89011   15.73498  -10.03527
      H1    -8.82115   16.36424   -9.30134
       H   -12.10545   14.11153   -6.42375
       O   -12.71758   13.53159   -6.88408
      H1   -12.84360   12.86885   -6.18070

