60
frame 0 | Written by MDAnalysis XYZWriter (release 2.4.3)
       H    12.18845    5.86088    1.46676
       O    11.69458    5.03923    1.69756
      H1    11.80768    4.98689    2.64826
       H    11.28222   10.32174   -3.24551
       O    12.09499   10.10045   -2.79028
      H1    12.70637    9.98054   -3.51201
       H    13.23216    7.41366   -0.20901
       O    12.96375    7.28147    0.70891
      H1    13.00879    8.22471    1.01937
       H    12.72141   10.42029   -1.00978
       O    12.61425   10.19956   -0.08579
      H1    11.70304   10.29498    0.14429
       H     8.74365    8.93985    2.39807
       O     8.02066    9.02038    3.03515
      H1     8.13788    8.22889    3.59189
       H    17.37674    7.43414    2.47534
       O    18.17476    7.91667    2.21284
      H1    18.82482    7.23680    1.99714
       H    15.60861    9.02238   -2.10863
       O    15.77051    8.13817   -2.47243
      H1    16.12024    7.62216   -1.72354
       H    14.61080    4.12380    0.84497
       O    15.17248    4.43756    1.56359
      H1    14.95115    5.39397    1.60491
       H     9.20397    6.92858   -1.67755
       O    10.00407    6.40127   -1.60920
      H1    10.63861    6.98354   -2.02097
       H    13.46704    6.42495    4.71905
       O    12.53368    6.53086    4.72518
      H1    12.36031    7.04359    3.89365
       H    10.15486   11.12738    4.51730
       O    10.71268   11.00274    3.73159
      H1    10.24247   11.53658    3.05471
       H    13.14518    8.97980    3.59373
       O    12.30657    8.80432    3.09819
      H1    11.74764    9.58071    3.32197
       H    15.15360    8.04113    2.22078
       O    15.46694    7.21087    2.66962
      H1    15.30094    7.37924    3.59845
       H     9.77627    8.21663    0.37318
       O     9.86131    8.56489    1.27285
      H1    10.74692    8.25623    1.57549
       H    15.76141   12.44108    3.71429
       O    15.24950   11.85691    3.15664
      H1    14.36712   11.91251    3.55853
       H    13.75831    4.15171   -1.28238
       O    14.15681    4.96943   -1.62819
      H1    15.06914    4.74057   -1.62955
       H    11.78152    3.35544   -0.90939
       O    12.39909    3.28524   -0.18109
      H1    11.97312    3.87372    0.47860
       H    13.60692    7.68590   -2.82887
       O    12.82603    7.10367   -2.73803
      H1    13.17347    6.32094   -2.31186
       H    14.23106    9.93671    0.88065
       O    15.01744    9.51097    1.25628
      H1    15.29535   10.20772    1.83107
       H    14.47409   10.12977    5.32327
       O    14.73290    9.63626    4.53474
      H1    15.11458   10.35772    3.99536

