60
frame 0 | Written by MDAnalysis XYZWriter (release 2.4.3)
       H     4.25169   -6.14740   17.17854
       O     4.50066   -5.28743   16.84908
      H1     4.94100   -5.52722   16.02811
       H     7.77223   -2.15752   13.85457
       O     7.00128   -2.65340   14.09936
      H1     7.32690   -3.20569   14.81718
       H     4.85386   -2.20374   16.44661
       O     5.68658   -1.73338   16.49387
      H1     5.85647   -1.59228   15.57850
       H     4.85198   -0.42059   16.79205
       O     4.28607    0.30432   17.13923
      H1     3.91359   -0.04491   17.96698
       H     5.15924    1.83507   17.77079
       O     5.71560    2.59932   17.84297
      H1     6.59595    2.20592   17.88173
       H     7.19854    0.03154   18.05954
       O     7.16769   -0.32125   18.94503
      H1     8.10430   -0.58435   19.11385
       H     1.11867   -4.54964   14.93269
       O     1.11024   -3.82821   14.29100
      H1     1.03969   -3.07706   14.86640
       H     0.70779   -5.67475   19.07878
       O     1.50113   -5.40855   18.57669
      H1     1.39209   -4.45946   18.46631
       H     1.28736    1.37199   18.06556
       O     0.74376    1.31698   17.26136
      H1     1.42422    1.34474   16.55815
       H     6.01438    0.68447   13.33992
       O     5.73686    0.73588   14.25336
      H1     4.83678    1.04620   14.25638
       H     3.52006    4.23909   13.84842
       O     3.09594    3.64289   14.48865
      H1     2.16209    3.62492   14.17873
       H     3.49540   -3.62352   17.02091
       O     3.36686   -2.68637   17.27330
      H1     2.61262   -2.40385   16.77588
       H    -0.69551   -1.73451   18.24757
       O    -1.05548   -0.98417   17.78455
      H1    -0.39892   -0.29536   18.02549
       H    -0.55644   -1.53910   15.15150
       O    -1.07340   -1.44878   14.33931
      H1    -0.63993   -0.77619   13.83199
       H     0.73579   -0.84197   16.31527
       O     1.40767   -1.44946   15.95911
      H1     1.97154   -0.85871   15.42282
       H     3.40606    0.65825   15.79381
       O     2.88536    0.81591   14.99758
      H1     3.12094    1.71123   14.74224
       H    -0.58534    1.72209   15.15593
       O    -1.43810    1.42313   15.46871
      H1    -1.52506    1.92467   16.30429
       H     6.38339   -2.98370   17.65126
       O     6.61558   -3.91125   17.81410
      H1     5.97037   -4.36681   17.26934
       H     8.21364    2.59251   16.66055
       O     8.39601    3.51182   16.87454
      H1     7.48114    3.88421   16.87213
       H     6.84331    0.57967   15.79533
       O     7.59941    0.83641   16.35619
      H1     8.20734    0.10475   16.17597

