60
frame 0 | Written by MDAnalysis XYZWriter (release 2.4.3)
       H     2.72763  -11.03504   16.62709
       O     2.70971  -10.07343   16.57943
      H1     2.05612   -9.94098   17.27422
       H    -1.25017   -8.49801   15.63980
       O    -1.42498   -7.66514   16.10289
      H1    -1.01981   -7.01430   15.59561
       H    -2.40554   -4.85648   12.30127
       O    -2.61312   -4.43958   11.45788
      H1    -1.98087   -4.80049   10.78420
       H     1.29243   -6.45256   16.70195
       O     1.80143   -7.13894   17.07014
      H1     2.07249   -7.55782   16.20082
       H     0.01060   -2.85350   13.17782
       O    -0.79271   -3.17556   13.63579
      H1    -1.43132   -2.44057   13.47245
       H     0.65536   -6.39545   12.54727
       O     1.10931   -6.50404   11.69782
      H1     0.33191   -6.67850   11.11665
       H     1.96482   -9.20229   15.21216
       O     1.81890   -8.39494   14.68643
      H1     2.41440   -8.51414   13.90162
       H     3.04850   -7.79851   11.83668
       O     3.12401   -8.62198   12.39750
      H1     3.18741   -9.35039   11.74075
       H     1.50992   -9.27500   19.54877
       O     1.15692   -9.27507   18.63802
      H1     1.43349   -8.36753   18.21164
       H    -0.39086   -4.10192   17.25526
       O     0.18376   -4.79107   17.69546
      H1    -0.49282   -5.42305   18.08464
       H     1.25199   -9.16791   12.57011
       O     0.39666   -9.58327   12.32088
      H1     0.05715   -9.14071   11.46194
       H    -0.74510   -2.89534   15.31753
       O    -0.93790   -2.88865   16.26037
      H1    -0.87846   -1.98631   16.56752
       H     0.81902   -6.80069   14.45214
       O     0.07885   -6.22396   14.20518
      H1     0.43586   -5.37594   14.56203
       H     3.63122   -6.13827   15.56966
       O     3.30323   -5.85382   14.71963
      H1     4.18083   -5.82670   14.26517
       H    -1.55434  -10.68401   14.82934
       O    -0.86242  -10.01146   15.04044
      H1    -0.60799   -9.53092   14.27844
       H    -2.04330   -6.35352   14.48387
       O    -2.75510   -5.79902   14.06349
      H1    -3.27839   -5.43261   14.78450
       H     2.71856   -4.39526   17.50631
       O     3.18439   -3.60236   17.69658
      H1     4.04011   -3.98827   17.76766
       H     1.25206   -4.72397   11.43157
       O     1.29475   -3.81367   11.73684
      H1     1.44286   -3.29846   10.93543
       H     3.08510   -3.82560   11.93900
       O     3.97658   -3.89118   11.60533
      H1     4.38424   -3.26583   12.21048
       H    -1.70562   -7.91572   11.99173
       O    -2.64722   -7.84416   11.96450
      H1    -2.84263   -7.09566   12.59972

