60
frame 0 | Written by MDAnalysis XYZWriter (release 2.4.3)
       H   -13.19818    1.23481   -8.81223
       O   -14.02805    1.04937   -9.27982
      H1   -13.95252    1.47390  -10.16723
       H    -9.12134    2.40647  -13.79420
       O    -8.29544    2.04030  -13.44130
      H1    -8.34586    1.11176  -13.65200
       H    -9.38019   -1.96689  -10.80442
       O    -9.14880   -1.15708  -11.30093
      H1    -8.24880   -1.29232  -11.57453
       H    -9.89951    0.62877  -10.17240
       O    -9.40106    1.43682  -10.31095
      H1    -9.19317    1.36914  -11.24930
       H    -7.80191    0.94857   -9.64049
       O    -6.96723    0.58063   -9.32538
      H1    -6.53166    1.41288   -9.15340
       H    -8.23459   -0.22662  -15.34397
       O    -7.67980   -0.37121  -14.60694
      H1    -8.03876   -1.17294  -14.18978
       H   -10.57874   -0.57796  -14.55998
       O   -10.77217   -0.77703  -15.48210
      H1   -11.63048   -0.38357  -15.62751
       H   -11.28248   -2.28920   -9.47811
       O   -10.38131   -2.59672   -9.28655
      H1   -10.53199   -3.10951   -8.50323
       H   -11.50722   -4.03584  -14.58797
       O   -11.99023   -3.58841  -15.29419
      H1   -11.76173   -2.63953  -15.28348
       H   -13.23700   -1.64064  -10.74250
       O   -13.00844   -1.71538   -9.81656
      H1   -13.11675   -0.80994   -9.48480
       H   -13.13435   -1.55779  -12.63155
       O   -13.90897   -2.04869  -12.35485
      H1   -14.38363   -2.14012  -13.20872
       H    -9.44195   -0.44871   -8.63790
       O    -9.62628   -0.00206   -7.78856
      H1   -10.01620   -0.66840   -7.21430
       H    -6.42745   -0.16458  -10.84869
       O    -6.23093   -0.75075  -11.56318
      H1    -5.65467   -0.28927  -12.21086
       H   -10.68772   -4.30879  -10.20362
       O   -10.59075   -5.24180  -10.34450
      H1    -9.86662   -5.46747   -9.77382
       H   -11.16268    2.02881  -11.00952
       O   -11.85635    1.45294  -11.33926
      H1   -12.60811    2.04080  -11.19211
       H   -11.87746   -0.00323  -12.44437
       O   -11.50228   -0.86443  -12.64857
      H1   -10.66682   -0.88238  -12.16634
       H    -7.48583   -3.91220  -11.98445
       O    -8.04687   -3.46810  -12.68595
      H1    -8.81801   -4.04016  -12.81544
       H   -14.08051    0.77970  -15.46748
       O   -13.25111    0.89853  -15.91612
      H1   -12.70748    1.40306  -15.32624
       H   -10.55818   -4.68995  -12.39426
       O   -10.36474   -4.69880  -13.35644
      H1   -10.36524   -5.66282  -13.54196
       H   -11.67647    2.43774  -13.80940
       O   -11.02816    2.09087  -14.47314
      H1   -10.91177    2.79860  -15.13845

