60
frame 1 | Written by MDAnalysis XYZWriter (release 2.4.3)
       H    -6.07945    4.09988  -18.38925
       O    -6.40553    3.91949  -19.27935
      H1    -7.01828    3.21724  -19.09081
       H    -8.04005   10.54767  -15.60983
       O    -8.54179    9.78172  -15.29826
      H1    -9.48321   10.01719  -15.48143
       H   -12.19471    7.20872  -17.84726
       O   -12.30350    8.06411  -17.39887
      H1   -13.13999    7.89893  -16.93605
       H    -6.75645    6.87856  -18.94564
       O    -7.59558    6.45392  -18.78413
      H1    -7.44396    5.51084  -18.83453
       H    -9.11302    9.69666  -17.97708
       O    -8.60231   10.49641  -18.22038
      H1    -8.61008   10.43451  -19.17064
       H    -4.37493    2.05380  -15.48004
       O    -4.07487    2.43423  -16.32870
      H1    -3.34887    3.00541  -16.04789
       H    -4.25511    9.97308  -17.64376
       O    -5.19457    9.77305  -17.63574
      H1    -5.29810    9.10880  -18.31384
       H   -10.82598   12.33528  -17.14029
       O    -9.94990   12.54096  -17.47520
      H1    -9.47374   11.71384  -17.32950
       H    -9.28789    4.70760  -17.12298
       O    -9.29943    5.35391  -16.43867
      H1    -9.21876    6.20280  -16.86488
       H    -3.86617    5.65000  -13.83112
       O    -3.37337    5.97262  -14.62718
      H1    -3.30686    6.90936  -14.45077
       H    -2.34691    5.72435  -18.01987
       O    -1.68206    5.39608  -18.60528
      H1    -1.77737    4.43690  -18.62929
       H    -7.80352    1.34323  -16.08802
       O    -7.90997    2.29514  -16.02170
      H1    -7.01817    2.64989  -16.14937
       H    -8.74345    7.49813  -17.91759
       O    -9.26886    7.92852  -17.20282
      H1    -8.64352    8.09218  -16.50221
       H   -10.82066    5.33352  -15.25823
       O   -11.22977    5.18911  -14.39493
      H1   -11.59096    6.08008  -14.19647
       H    -6.15676   11.42303  -15.60307
       O    -6.80960   11.67368  -16.30374
      H1    -6.50213   11.14741  -17.04653
       H    -5.27683    8.42995  -15.73649
       O    -4.90216    8.76884  -14.93181
      H1    -5.19516    8.16393  -14.24256
       H    -6.82377    5.82761  -14.64502
       O    -7.05912    6.18527  -15.50807
      H1    -7.84650    5.66001  -15.78156
       H    -2.77275    7.92557  -17.23060
       O    -3.16762    7.04939  -17.19179
      H1    -3.08154    6.81038  -16.27299
       H    -2.33177   10.30327  -17.99039
       O    -2.55728    9.73065  -17.25936
      H1    -2.38062   10.28843  -16.50204
       H    -6.27856    4.75274  -16.03946
       O    -6.11691    4.04581  -16.67974
      H1    -5.29776    3.65971  -16.38210

