60
frame 0 | Written by MDAnalysis XYZWriter (release 2.4.3)
       H     5.82528  -12.74062   15.21078
       O     5.17789  -12.06367   14.95917
      H1     4.62762  -11.93410   15.73537
       H     3.36212  -14.13041   12.73238
       O     3.14397  -13.20619   12.88283
      H1     3.88507  -12.93307   13.43849
       H     1.38716  -12.77488   12.76510
       O     0.47673  -13.02047   12.85537
      H1     0.15385  -12.20040   13.25846
       H     4.85387  -18.55457   13.56610
       O     4.09167  -18.40529   12.98876
      H1     4.06577  -17.43829   12.99383
       H     7.35191  -15.60242   17.45507
       O     7.29189  -16.56059   17.62624
      H1     7.67889  -16.70025   18.49186
       H     7.75502  -14.28508   14.17058
       O     7.34705  -13.43312   14.03134
      H1     7.70732  -13.16522   13.13181
       H     1.24895  -14.16055   14.15158
       O     1.46313  -14.65478   14.94750
      H1     0.69512  -15.22278   15.09565
       H    -1.07011  -15.54199   15.66905
       O    -0.63805  -16.25680   16.13269
      H1    -0.51700  -16.96804   15.45737
       H     9.17631  -16.35971   13.96625
       O     8.63795  -16.15352   14.74723
      H1     9.16001  -16.54231   15.44168
       H     1.89078  -13.41884   16.08627
       O     2.02565  -12.63795   16.61025
      H1     2.56513  -12.92079   17.37704
       H     6.81062  -17.25311   13.33653
       O     7.15267  -18.16955   13.36471
      H1     8.10788  -18.04881   13.28477
       H     7.57727  -12.73456   16.76132
       O     7.02754  -13.33855   17.26190
      H1     6.34916  -12.75846   17.63844
       H     6.04199  -15.07452   12.59038
       O     5.77875  -15.89544   13.04239
      H1     5.34930  -15.59713   13.85249
       H     1.55476  -18.53967   11.95264
       O     0.63800  -18.66766   12.19744
      H1     0.68901  -18.79699   13.13904
       H     0.98923  -16.47308   16.91357
       O     1.70251  -16.53805   17.55578
      H1     2.10362  -17.38700   17.29478
       H    -0.07763  -17.01265   12.54636
       O    -0.20169  -16.13372   12.86559
      H1    -0.46566  -15.64864   12.05775
       H     1.88861  -16.08643   12.62790
       O     2.74072  -16.05405   12.19700
      H1     2.61686  -16.01010   11.24628
       H     3.18811  -15.72761   14.60219
       O     3.99590  -15.84334   15.14258
      H1     3.80711  -16.69143   15.57976
       H     4.08925  -15.18295   17.17075
       O     4.17018  -15.31747   18.13295
      H1     3.30258  -15.66594   18.41272
       H     6.28278  -17.51254   16.54069
       O     5.83128  -18.15891   15.97213
      H1     6.12637  -17.97258   15.07316

