60
frame 0 | Written by MDAnalysis XYZWriter (release 2.4.3)
       H     4.35777   -7.84933   13.27427
       O     4.84494   -8.51051   12.74264
      H1     5.72175   -8.14598   12.69796
       H     3.36212  -14.13041   12.73238
       O     3.14397  -13.20619   12.88283
      H1     3.88507  -12.93307   13.43849
       H     5.47653  -11.57538    6.73432
       O     5.35233  -12.35989    7.29395
      H1     6.12121  -12.87226    7.02093
       H     3.23292  -10.18631   13.06162
       O     2.29060  -10.06349   12.93628
      H1     2.04810  -10.45168   12.09029
       H     8.65715  -12.43416    9.91387
       O     8.75706  -12.46189    8.96291
      H1     8.56208  -11.50673    8.74496
       H     3.26488  -11.23689   10.36359
       O     2.37373  -10.92459   10.27279
      H1     1.86957  -11.73344   10.10955
       H     6.95024   -6.30640   13.30061
       O     7.13171   -7.27232   13.17259
      H1     7.14714   -7.41218   12.21919
       H     2.98478   -7.43458   10.94194
       O     3.38797   -7.47785   10.07226
      H1     2.63625   -7.65044    9.47779
       H     7.75502  -14.28508   14.17058
       O     7.34705  -13.43312   14.03134
      H1     7.70732  -13.16522   13.13181
       H     4.27870  -13.80379    6.45983
       O     3.37992  -14.01406    6.14444
      H1     3.34590  -14.96704    6.28159
       H     9.22089   -9.20050   13.10869
       O     9.26231   -9.31685   12.18716
      H1     8.85094   -8.51089   11.82528
       H     4.47957   -8.63785    8.80108
       O     5.12878   -9.36200    8.61904
      H1     4.93671   -9.62763    7.71188
       H     6.09335  -10.03416   12.91707
       O     6.94336  -10.28220   13.29980
      H1     7.54297   -9.71652   12.76159
       H     7.52087   -7.02907    9.93211
       O     7.66469   -7.71149   10.58582
      H1     7.36826   -8.49322   10.15331
       H     5.76505  -13.39469   10.89940
       O     6.35587  -14.12367   11.09900
      H1     6.26105  -14.66849   10.31124
       H     8.70080   -9.28003    8.17455
       O     8.10502   -9.75749    8.75746
      H1     7.26392   -9.56844    8.37449
       H     5.94999   -9.82255    5.64925
       O     5.01188   -9.93206    5.92719
      H1     4.60989  -10.41877    5.17978
       H     5.31571  -11.00527   10.15693
       O     5.15598  -11.94255   10.25695
      H1     5.03267  -12.14492    9.31826
       H     7.99871  -11.42590   12.16271
       O     8.23164  -12.24843   11.70526
      H1     7.36896  -12.59571   11.48348
       H     0.41929  -10.04994    7.87340
       O     1.40797  -10.21676    7.76824
      H1     1.67354  -10.41180    8.68801

