60
frame 1 | Written by MDAnalysis XYZWriter (release 2.4.3)
       H   -13.07295   -6.70278   -4.43678
       O   -13.78805   -6.43839   -3.82200
      H1   -13.50794   -5.57478   -3.51148
       H   -12.13702   -7.76337   -6.33994
       O   -13.07344   -7.75943   -6.20755
      H1   -13.25183   -8.67567   -6.03803
       H   -13.77779   -5.03027    0.81550
       O   -14.08315   -4.17480    0.52933
      H1   -14.52048   -3.81953    1.34465
       H   -16.61254   -8.77674    0.03571
       O   -16.25260   -9.05917    0.87858
      H1   -15.95808   -9.94723    0.67725
       H   -12.47730  -10.78471   -3.64803
       O   -11.71917  -11.36143   -3.76300
      H1   -11.81739  -11.64476   -4.69280
       H   -14.50937   -7.30632    0.27934
       O   -13.80074   -6.80481    0.65583
      H1   -13.82110   -7.10512    1.56333
       H   -13.77449  -12.14633   -3.13938
       O   -13.99758  -12.87770   -3.74816
      H1   -14.51886  -12.46307   -4.42780
       H   -17.02564   -7.41657    1.80835
       O   -17.80607   -6.87955    1.94972
      H1   -18.33731   -7.28058    2.64615
       H   -14.00752  -10.52144   -6.68394
       O   -13.73603  -10.28419   -5.78515
      H1   -14.56564  -10.01091   -5.35407
       H   -17.01361  -10.19148   -2.73366
       O   -17.06940   -9.23814   -2.76436
      H1   -16.86664   -9.05472   -3.66597
       H   -11.26686   -8.42287    0.35912
       O   -11.44130   -8.73007    1.22680
      H1   -11.65648   -9.67855    1.13241
       H   -18.90411   -6.51489   -1.30310
       O   -18.87494   -7.08617   -0.51988
      H1   -18.31402   -6.64756    0.13401
       H   -12.66322  -10.28419   -1.37605
       O   -13.43869  -10.38396   -1.93488
      H1   -13.93765   -9.56918   -1.79378
       H   -15.65959   -6.35969   -1.33480
       O   -16.00474   -5.59390   -0.86937
      H1   -15.25512   -5.22524   -0.39712
       H   -15.65681   -8.35525   -2.26901
       O   -14.85943   -7.92553   -1.93005
      H1   -14.51297   -7.52585   -2.72263
       H   -15.22685   -2.87857   -2.38261
       O   -15.13371   -3.75559   -2.79745
      H1   -15.41170   -4.34662   -2.11093
       H   -11.98689   -8.01484   -1.60052
       O   -11.83082   -7.18577   -1.18357
      H1   -12.53534   -7.06112   -0.53459
       H   -15.98333   -6.10630   -6.37418
       O   -15.99195   -6.56390   -5.50284
      H1   -15.13339   -6.24597   -5.15796
       H   -15.76455  -11.36790   -0.85341
       O   -15.36625  -11.51937    0.01909
      H1   -14.42320  -11.42552   -0.13555
       H   -16.39732   -9.72656   -6.19188
       O   -16.09203   -9.23603   -5.40045
      H1   -16.27902   -8.30568   -5.61548

