60
frame 0 | Written by MDAnalysis XYZWriter (release 2.4.3)
       H     2.14128  -12.14731   -6.32489
       O     2.05983  -11.85820   -5.42054
      H1     2.32426  -12.62128   -4.87948
       H     7.39364  -16.73667   -6.51130
       O     6.67811  -17.16091   -6.05955
      H1     6.50937  -16.52601   -5.35379
       H     3.97226  -13.37243   -4.46533
       O     3.26437  -14.05523   -4.38689
      H1     3.19365  -14.24885   -3.43354
       H     7.45119  -11.79912   -2.21722
       O     6.66887  -11.20837   -2.21340
      H1     5.93066  -11.81680   -2.23866
       H     5.95059  -12.62440    0.27455
       O     5.83080  -13.55612    0.40043
      H1     5.34857  -13.84534   -0.40101
       H     4.89281  -16.41224   -3.95488
       O     5.59210  -15.79766   -3.76280
      H1     6.10706  -16.34445   -3.16120
       H     2.70407  -15.14912    0.78033
       O     2.34957  -14.26880    0.88062
      H1     1.40827  -14.33342    0.69318
       H     1.55566  -16.64681   -6.40083
       O     1.49838  -16.98317   -7.29024
      H1     1.66121  -16.16949   -7.80943
       H     0.23112  -12.19321   -4.38214
       O    -0.61401  -12.61488   -4.21109
      H1    -0.36202  -13.54167   -4.21295
       H     3.46842  -12.30025   -2.28479
       O     4.15436  -11.76698   -2.69709
      H1     4.00217  -10.89594   -2.27373
       H    -0.40277  -14.93891   -6.15682
       O    -0.92655  -14.67793   -6.93955
      H1    -1.82476  -14.49454   -6.57703
       H     0.32263  -16.34504   -1.71084
       O    -0.35121  -17.02042   -1.53724
      H1     0.15874  -17.82843   -1.54254
       H     2.99777  -17.81426   -6.07278
       O     2.81761  -18.43289   -5.33518
      H1     2.82873  -19.33687   -5.73911
       H     4.14085  -16.74327    1.11666
       O     3.71209  -16.62995    0.22293
      H1     3.30684  -17.50320    0.12579
       H     4.40972  -15.22213   -1.21526
       O     4.46105  -14.42423   -1.74879
      H1     4.92791  -14.70900   -2.56375
       H     1.67358  -15.15846   -4.62255
       O     0.79969  -15.32582   -5.00950
      H1     0.30118  -15.67289   -4.27218
       H     1.04399  -11.96292   -1.62613
       O     1.92633  -12.41424   -1.54434
      H1     2.34908  -11.90285   -0.84569
       H     2.56665  -15.30992   -2.11541
       O     1.61084  -15.10747   -2.05161
      H1     1.62283  -14.21792   -1.67587
       H     5.53707  -13.41729   -5.81430
       O     5.41918  -12.46348   -5.56695
      H1     5.93594  -12.38510   -4.73354
       H     4.78377  -18.02552   -2.82695
       O     3.82436  -17.95063   -2.99168
      H1     3.66344  -18.41169   -3.82397

