60
frame 0 | Written by MDAnalysis XYZWriter (release 2.4.3)
       H   -12.53815    2.46938    9.84560
       O   -11.91238    1.74602    9.94189
      H1   -12.46957    1.12074   10.45911
       H   -18.53393    3.62807    6.04828
       O   -18.10192    4.39783    6.44754
      H1   -17.64574    4.09617    7.25018
       H   -15.42757    4.15673    4.42526
       O   -15.76401    4.92683    4.94524
      H1   -16.59841    4.66169    5.36238
       H   -12.87995    4.51979    9.42645
       O   -13.39132    4.06800    8.73932
      H1   -13.21268    4.66089    8.00632
       H   -17.16429    7.07670   10.19113
       O   -17.96256    7.27206   10.66004
      H1   -17.70638    7.58789   11.56506
       H   -15.32003    4.04990   12.86862
       O   -15.04355    3.14489   12.55650
      H1   -14.35552    3.37856   11.93454
       H   -12.41968    7.30155    9.28750
       O   -12.00476    6.44320    9.43217
      H1   -11.85028    6.42066   10.35908
       H   -15.83997    0.48608    6.75127
       O   -15.77822    1.42577    6.51093
      H1   -14.81218    1.50770    6.56071
       H   -12.56029    4.61957    6.10527
       O   -13.24151    5.22610    6.28971
      H1   -13.92561    4.92959    5.69286
       H   -16.34187    4.92935    8.75370
       O   -16.23045    3.95671    8.74795
      H1   -15.28279    3.90042    8.70514
       H   -17.83534    1.12121   10.58047
       O   -17.83914    0.25730   11.00253
      H1   -16.88746    0.08683   11.15197
       H   -14.49038    7.45795   11.78230
       O   -15.07817    6.85855   11.34608
      H1   -15.64652    6.57737   12.05305
       H   -12.73074    2.15672    7.17862
       O   -12.80440    1.21043    7.35790
      H1   -12.78082    1.21754    8.31425
       H   -16.43182    2.01893   12.88849
       O   -16.93975    1.48712   13.54177
      H1   -17.42315    0.90758   12.98394
       H   -13.07524    4.91054   11.70507
       O   -12.72317    4.03886   11.49439
      H1   -12.00510    3.89069   12.12335
       H   -17.41679    3.20391    9.83115
       O   -18.21612    2.82845   10.21717
      H1   -18.50455    3.53924   10.78542
       H   -15.17276   -0.04806    8.70020
       O   -15.54376    0.56431    9.35208
      H1   -16.04962    1.18047    8.81356
       H   -15.48961    7.04633    7.97801
       O   -16.04977    6.85502    8.74999
      H1   -15.46082    7.07853    9.47049
       H   -16.17046    1.64953    4.69972
       O   -16.24343    1.46753    3.75159
      H1   -17.14838    1.16089    3.71269
       H   -15.63377    8.71547    6.67107
       O   -15.20132    7.93462    6.30970
      H1   -14.62245    8.24578    5.61651

