60
frame 1 | Written by MDAnalysis XYZWriter (release 2.4.3)
       H    -3.94780    4.43872   14.21134
       O    -4.88694    4.32378   14.16240
      H1    -5.21083    5.12813   14.60117
       H    -7.51989    9.83399   13.82864
       O    -6.92939   10.13919   14.55120
      H1    -6.78565   11.09316   14.40287
       H    -9.41217    9.23069   13.45700
       O    -8.74473    8.71299   12.95802
      H1    -8.69330    7.92111   13.47991
       H    -5.80745    4.57200   10.55099
       O    -5.90116    4.28394   11.49475
      H1    -5.39223    4.92637   11.95823
       H    -5.65847    9.77583   10.16510
       O    -5.70161   10.72831   10.35802
      H1    -5.27027   11.19688    9.65037
       H   -10.87878    6.44912    9.64712
       O   -10.12597    5.95758    9.29504
      H1    -9.36907    6.46337    9.59630
       H    -7.05442    7.75097   10.40085
       O    -6.15651    8.03557   10.18333
      H1    -5.63742    7.47415   10.76955
       H    -3.57623    2.23354   12.45503
       O    -3.63347    2.51096   11.51305
      H1    -4.41615    3.08505   11.51718
       H    -1.64735    8.04915    9.77632
       O    -2.64495    8.04548    9.76074
      H1    -2.92396    8.51741   10.56104
       H    -7.52577    6.86699    7.22118
       O    -6.58470    6.73572    7.25251
      H1    -6.32615    6.85444    8.19023
       H    -8.66316    5.50711   13.92962
       O    -8.96644    6.33500   14.31598
      H1    -8.26111    6.52132   14.96466
       H    -3.63152    6.96235    7.31368
       O    -3.24525    6.24663    7.85616
      H1    -3.12676    6.68559    8.71794
       H    -3.83110    6.41057   12.24950
       O    -4.74320    6.76812   12.18138
      H1    -5.01039    6.99489   13.08168
       H    -4.79410    4.87840    8.39165
       O    -5.23702    4.11947    8.76514
      H1    -6.08354    4.15264    8.33933
       H    -3.85887   10.55245   15.25542
       O    -3.10027   10.44243   14.65365
      H1    -3.46325   10.35342   13.75653
       H    -1.66279    5.42428   11.26770
       O    -2.32380    5.37055   11.98801
      H1    -2.52452    4.39161   12.05648
       H    -4.22427    8.58059   12.08642
       O    -3.71812    9.39955   11.92229
      H1    -4.33180    9.98644   11.45125
       H    -5.49567    8.14860   14.74138
       O    -5.25383    7.20844   14.69136
      H1    -4.58416    7.08996   15.35585
       H    -9.04090    8.34485   10.26120
       O    -8.59355    7.55586   10.62400
      H1    -8.90112    7.53889   11.52928
       H    -7.22285    4.23728   12.70777
       O    -7.83000    4.13055   13.45196
      H1    -7.28412    3.81799   14.18607

