60
frame 0 | Written by MDAnalysis XYZWriter (release 2.4.3)
       H    -3.94794    6.87945  -12.40005
       O    -4.39521    7.67874  -12.63416
      H1    -4.11987    8.26572  -11.91248
       H    -0.24707    5.81515  -13.90958
       O     0.05992    5.86518  -12.99598
      H1     0.89490    6.36171  -13.08054
       H     0.43986   12.30859  -15.87641
       O     0.08672   12.71635  -16.69481
      H1    -0.60899   12.09417  -16.99906
       H    -3.54668    4.09145  -14.39460
       O    -3.30117    4.50432  -15.25353
      H1    -4.19323    4.63643  -15.62405
       H    -0.90412    4.63006  -17.16649
       O    -0.79108    4.22496  -18.03464
      H1    -0.13931    3.52746  -17.86081
       H    -3.98303   13.01494  -16.94485
       O    -3.14771   13.44808  -16.89416
      H1    -3.15445   13.82605  -15.99927
       H    -1.44494    4.96505  -15.14412
       O    -0.50647    4.96291  -15.41162
      H1    -0.22438    4.04500  -15.40177
       H    -7.15519    7.50869  -17.80519
       O    -7.16056    7.38545  -16.81611
      H1    -6.36453    7.84675  -16.52068
       H     1.33503    8.41990  -18.81924
       O     2.15166    8.40484  -18.30541
      H1     2.83660    8.13860  -18.94783
       H    -5.23178   11.36752  -15.99082
       O    -5.49761   11.88273  -16.77655
      H1    -5.19797   11.34850  -17.50245
       H    -4.10982    9.24188  -16.63223
       O    -4.75570    9.04242  -15.94696
      H1    -4.26148    8.80885  -15.16223
       H    -5.85544   10.92716  -13.48506
       O    -5.23371   11.59377  -13.80407
      H1    -5.19040   12.21028  -13.05173
       H    -6.31282    5.54965  -14.75016
       O    -6.00483    5.35703  -15.65590
      H1    -6.39033    6.07315  -16.19836
       H     1.44854    7.94067  -14.34934
       O     2.04321    7.18851  -14.51289
      H1     1.69921    6.76340  -15.30947
       H    -2.27431   10.94006  -12.94514
       O    -2.79404   10.28522  -13.38825
      H1    -3.70041   10.64255  -13.47677
       H     2.94239    6.13530  -16.94008
       O     2.00483    5.95867  -17.01530
      H1     1.70096    6.80225  -17.38549
       H    -2.18156    9.41411  -17.35394
       O    -2.45881    8.51302  -17.68084
      H1    -2.62183    7.98073  -16.86171
       H    -2.43084   11.77415  -16.19064
       O    -2.12637   10.85100  -16.06876
      H1    -2.17192   10.75010  -15.11104
       H    -1.98898    8.24692  -12.15003
       O    -1.05216    8.23049  -12.24366
      H1    -0.84148    7.30522  -12.48547
       H    -2.79685    6.33690  -14.80224
       O    -2.45577    7.19521  -15.06732
      H1    -2.58701    7.73624  -14.29212

