60
frame 0 | Written by MDAnalysis XYZWriter (release 2.4.3)
       H    16.04260   13.55385    7.86866
       O    16.18046   12.61082    7.68055
      H1    17.12796   12.46566    7.79617
       H    13.85320   14.25440   11.04255
       O    14.60394   13.65548   11.29659
      H1    14.10825   12.91258   11.71100
       H    16.92200   17.29382   16.15051
       O    16.25180   16.82840   15.63168
      H1    15.95740   16.09071   16.18438
       H    12.73467   15.97258    9.70605
       O    13.48547   16.17205   10.21318
      H1    13.95279   16.82928    9.66714
       H    14.48949   17.60730   12.66606
       O    13.56153   17.84995   12.51671
      H1    13.37708   17.19547   11.80788
       H    16.59315   16.99126   13.67343
       O    16.41398   17.03081   12.71669
      H1    16.40016   16.10021   12.44143
       H    14.54816   14.39809   12.86532
       O    14.08191   14.82482   13.57273
      H1    13.27722   14.25454   13.64949
       H    15.05741    9.89532   11.38219
       O    14.22358    9.98254   11.86586
      H1    13.94194    9.10879   12.14821
       H    11.47739   13.56667   10.91312
       O    11.90984   13.10569   11.62189
      H1    11.79418   13.66424   12.41745
       H    14.90019   14.01619   15.11806
       O    15.38086   14.12541   15.95960
      H1    14.77446   13.92514   16.69561
       H    16.00885   12.69820   15.89296
       O    16.40244   11.81652   15.89971
      H1    17.29111   12.03511   16.24882
       H    18.28055   11.55410    9.57687
       O    18.42575   11.66814    8.62371
      H1    18.64389   10.81781    8.26748
       H    18.32206   16.92966   10.13807
       O    17.94934   17.72534   10.53733
      H1    17.40268   17.38125   11.25527
       H    17.95410   14.64096   13.79545
       O    17.94098   14.88145   14.75129
      H1    17.04962   15.26860   14.86285
       H    18.59325   11.88609   13.86534
       O    19.24608   12.31754   14.42500
      H1    19.00538   13.23769   14.48183
       H    17.39536   11.24838   12.49719
       O    17.26868   10.96356   13.41511
      H1    16.54576   11.53479   13.74730
       H    16.76597   10.09162    9.89731
       O    16.40993   10.79445   10.42419
      H1    16.16906   11.45284    9.77240
       H    15.14481   11.58865   14.59987
       O    14.92402   11.88476   13.71454
      H1    14.77063   11.01745   13.26004
       H    15.78042   15.99399    8.40520
       O    15.87780   15.19288    8.94004
      H1    14.98912   15.04729    9.26941
       H    17.75287   14.43054   11.32350
       O    17.17681   14.40976   12.10382
      H1    16.31246   14.19977   11.72819

