60
frame 1 | Written by MDAnalysis XYZWriter (release 2.4.3)
       H    13.65401   18.35606   11.81067
       O    14.35705   17.74920   11.60284
      H1    13.95382   17.05198   11.02360
       H    12.37667   19.76772   14.76074
       O    12.63913   18.84716   14.71347
      H1    13.50429   18.70795   15.15087
       H    11.05357   12.03503   15.94136
       O    11.30401   11.83674   16.82263
      H1    11.39401   12.67682   17.22643
       H    14.37064   14.01143   18.90082
       O    13.74927   13.77127   19.58700
      H1    13.59045   12.83903   19.55373
       H    19.55018   16.64350   16.57360
       O    19.79854   16.18890   15.77221
      H1    19.28045   15.33063   15.94079
       H    14.41886   20.05537   19.66662
       O    13.80466   19.32262   19.40165
      H1    13.92309   19.27021   18.41299
       H    19.49184   18.36492   18.42168
       O    18.90585   17.77556   17.87971
      H1    18.61054   17.07937   18.48717
       H    10.68360   15.33188   15.50792
       O    11.14057   14.67734   14.94518
      H1    11.32170   15.32068   14.22000
       H    14.37785   16.88213   16.07965
       O    14.77175   17.74113   15.93002
      H1    15.59066   17.53899   15.42460
       H    11.89900   13.76396   19.39645
       O    11.02272   13.67450   18.92107
      H1    10.71781   14.58644   19.02471
       H    16.78353   20.45185   11.77758
       O    16.94902   19.51766   11.47443
      H1    16.17356   18.97421   11.81239
       H    18.03553   17.99559   14.47898
       O    17.38312   18.34128   15.09441
      H1    17.81884   18.17802   15.90961
       H    18.18588   13.34691   15.98123
       O    18.04583   13.99966   16.66230
      H1    17.08013   14.16376   16.70880
       H    14.56462   16.04771   12.79264
       O    14.50532   15.14779   13.11584
      H1    14.85149   14.50174   12.43652
       H     8.01175   16.57486   18.19451
       O     7.99798   15.96345   18.94409
      H1     7.51718   15.19570   18.64731
       H     7.60548   18.04323   16.31372
       O     8.14390   18.24940   17.10425
      H1     7.88914   19.11904   17.31870
       H    14.22300   14.86542   15.01124
       O    13.63843   15.12391   15.70198
      H1    12.74137   14.83373   15.40536
       H    15.10000   15.06159   17.17838
       O    15.70019   14.46298   17.64132
      H1    16.16810   14.96232   18.30358
       H    11.39868   17.85996   15.74030
       O    10.55810   17.33725   15.89224
      H1     9.91767   17.86353   16.33572
       H    10.19411   19.01549   13.14514
       O     9.66103   18.21456   13.21806
      H1     9.95791   17.89807   14.09836

