60
frame 0 | Written by MDAnalysis XYZWriter (release 2.4.3)
       H   -11.46601  -15.75430   -8.96746
       O   -11.40046  -15.96109   -9.89397
      H1   -12.16465  -16.53383  -10.04908
       H    -4.99115  -17.34199   -9.39995
       O    -4.10039  -17.51847   -9.00856
      H1    -3.58719  -16.73229   -9.10911
       H   -10.41957  -17.70489   -4.08490
       O   -10.35637  -18.51654   -4.55091
      H1   -11.01441  -18.45872   -5.25690
       H    -6.56497  -15.66089   -9.50926
       O    -6.54670  -16.59856   -9.75535
      H1    -6.97692  -16.56781  -10.62069
       H    -9.51822  -14.17985   -4.23187
       O    -9.63927  -14.24635   -3.27720
      H1   -10.02413  -15.09784   -3.12030
       H   -10.19832  -15.29140  -11.26140
       O   -10.03885  -14.91688  -12.12992
      H1    -9.10625  -15.07991  -12.32812
       H    -5.81718  -16.38906  -12.65557
       O    -4.89443  -16.20179  -12.88687
      H1    -4.50348  -17.09849  -12.99374
       H    -5.93675  -13.80389   -7.61771
       O    -6.55355  -14.41886   -8.05960
      H1    -7.00318  -13.77407   -8.57211
       H   -10.86499  -18.22133   -7.82941
       O   -10.25163  -18.11449   -8.55667
      H1   -10.55943  -17.33329   -9.05616
       H    -7.53333  -15.90530   -4.46048
       O    -7.04747  -16.00625   -3.61848
      H1    -7.11259  -16.94868   -3.47841
       H    -8.50598  -16.07361   -6.29691
       O    -8.43383  -15.26339   -5.79424
      H1    -7.88729  -14.70900   -6.35865
       H    -9.89754  -13.27623  -11.41780
       O    -9.62449  -12.59026  -10.78216
      H1    -8.73810  -12.42535  -11.10886
       H    -5.21413  -15.84357   -5.85204
       O    -4.84200  -15.21518   -5.20742
      H1    -5.50008  -15.29922   -4.53917
       H    -7.42948  -17.52234  -12.50183
       O    -7.57064  -16.57220  -12.28265
      H1    -7.72103  -16.12422  -13.10903
       H   -12.64058  -14.30348  -10.69311
       O   -12.85089  -13.40019  -10.92893
      H1   -13.77279  -13.38425  -10.79496
       H    -8.71340  -17.23190   -7.97024
       O    -7.87690  -17.25496   -7.46614
      H1    -7.26352  -16.86506   -8.11814
       H   -12.09952  -14.80495   -6.82515
       O   -11.30263  -15.17231   -7.24249
      H1   -10.70012  -15.22569   -6.45065
       H   -13.11143  -16.91321  -12.46941
       O   -12.75032  -17.44126  -11.74536
      H1   -13.13584  -18.31070  -11.86579
       H    -4.98006  -17.29062   -7.45855
       O    -5.31818  -17.46633   -6.55107
      H1    -6.26672  -17.65073   -6.75614
       H    -9.38151  -12.99724   -9.17098
       O    -8.92853  -13.05623   -8.28655
      H1    -9.58752  -13.45634   -7.72986

