60
frame 1 | Written by MDAnalysis XYZWriter (release 2.4.3)
       H    -3.26743   18.65315    2.48377
       O    -3.62438   17.87966    2.97688
      H1    -4.56085   18.13605    3.15093
       H     1.31547   12.27050    5.61844
       O     1.83729   11.52740    5.27775
      H1     2.12892   11.14171    6.12488
       H    -5.50926   12.15890    5.36641
       O    -5.53721   11.57072    6.13312
      H1    -6.19299   10.87781    5.92781
       H    -5.11606   14.09959    3.19084
       O    -5.50385   13.41769    3.76286
      H1    -6.37580   13.31621    3.35248
       H     1.18278   14.38909    2.36484
       O     0.27638   14.71338    2.21736
      H1    -0.26437   14.06115    2.68333
       H    -3.73447   15.87972    2.22127
       O    -3.84079   14.92663    2.19541
      H1    -3.00953   14.60575    2.58581
       H    -0.77256    9.93221    3.88562
       O    -0.24829    9.20305    4.21575
      H1     0.58068    9.23485    3.72133
       H    -3.50561   15.61019    4.59193
       O    -3.13640   15.26303    5.40951
      H1    -3.36044   14.31787    5.44810
       H     0.56014   11.63044    2.15062
       O     0.01381   11.79541    2.91194
      H1     0.63512   11.78167    3.67129
       H    -1.76982   12.70574    3.29307
       O    -1.96490   13.64176    3.51539
      H1    -2.10358   13.59401    4.48851
       H    -0.80977   14.36793   -0.85518
       O    -0.11094   13.84329   -0.41505
      H1    -0.21578   14.17667    0.46482
       H    -3.03266   12.11528    6.73900
       O    -2.44701   12.58868    6.15326
      H1    -1.57267   12.55235    6.59116
       H    -1.03853   18.13465    5.25824
       O    -0.95249   17.98494    4.30959
      H1    -1.77948   18.25355    3.92518
       H    -1.82627   15.72853    7.05236
       O    -0.99429   15.62320    7.52412
      H1    -0.63436   14.84613    7.05330
       H    -3.20107   10.67522    3.69721
       O    -2.44820   10.56904    4.31890
      H1    -2.56085   11.26437    4.97248
       H     0.22719   14.01728    5.56156
       O     0.32666   13.50425    6.37665
      H1     1.11466   13.86699    6.77703
       H     0.60969   15.45007    3.72422
       O     0.77620   15.77964    4.64113
      H1     0.04556   16.38313    4.75524
       H    -3.32004   11.00374   -0.57991
       O    -2.96098   10.64569    0.24442
      H1    -2.00755   10.80954    0.13646
       H    -4.13035   11.22801    1.82040
       O    -4.58542   11.07481    2.65327
      H1    -4.96183   11.92946    2.88371
       H    -3.08301   14.59862    0.51173
       O    -2.81072   14.74920   -0.41439
      H1    -3.58466   15.06565   -0.86016

