60
frame 0 | Written by MDAnalysis XYZWriter (release 2.4.3)
       H    -7.88281  -16.30332   10.96954
       O    -8.65820  -16.41474   10.40658
      H1    -8.36406  -17.12414    9.81077
       H    -9.25961  -17.64091   13.49298
       O    -9.37846  -17.94128   12.57171
      H1    -9.18707  -17.16844   12.01174
       H    -4.47422  -16.40770    7.97046
       O    -4.92120  -15.60201    8.22379
      H1    -4.42228  -15.35626    9.02363
       H    -7.45100  -10.98956   12.67780
       O    -8.03476  -11.53802   12.15604
      H1    -7.71712  -12.43368   12.31183
       H    -9.62507  -10.81304    9.96122
       O   -10.36003  -10.76049   10.58563
      H1   -10.15974  -11.40541   11.27226
       H    -8.69273  -16.00937    5.66570
       O    -8.66010  -15.06597    5.89834
      H1    -8.56330  -14.97542    6.87601
       H    -8.61029  -10.51528    7.88618
       O    -8.41238  -10.18537    8.79436
      H1    -7.78448  -10.83152    9.08909
       H   -10.76442  -12.32171    7.22612
       O   -10.60192  -12.91843    7.97037
      H1   -11.18824  -12.60078    8.67434
       H    -5.75754  -13.02559    6.54350
       O    -5.54480  -13.88579    6.15116
      H1    -5.43840  -14.45008    6.92466
       H    -8.06992  -15.20003    8.97860
       O    -8.14703  -14.25033    8.77522
      H1    -9.10742  -14.10766    8.65218
       H    -9.81915  -17.03779    8.12131
       O   -10.59610  -16.47914    8.19992
      H1   -10.30457  -15.72187    8.77101
       H    -6.07455  -17.13024   12.21095
       O    -6.18016  -16.73374   11.36304
      H1    -5.25885  -16.49063   11.17768
       H   -12.86440  -14.50884    6.32135
       O   -12.07471  -14.13136    5.93445
      H1   -11.71220  -13.80876    6.79085
       H    -6.97483  -12.64150    4.21957
       O    -7.83460  -12.53850    4.65421
      H1    -7.87681  -13.30274    5.26176
       H   -12.10445  -15.94131    9.46066
       O   -12.06085  -15.13310   10.01441
      H1   -12.93222  -14.76073    9.90917
       H    -5.53429  -13.74132   10.47077
       O    -4.60844  -14.11967   10.46830
      H1    -4.25215  -13.80829   11.32218
       H    -5.56870  -11.40068    8.20848
       O    -5.45207  -11.31544    7.22312
      H1    -4.63384  -10.81648    7.16738
       H    -7.67628  -14.55305   13.05389
       O    -7.53704  -14.22550   12.14769
      H1    -6.82567  -14.73114   11.75295
       H    -6.89627  -11.91819   10.53501
       O    -6.54802  -12.13904    9.66409
      H1    -7.13997  -12.83919    9.34946
       H    -7.55611  -18.21093    7.51926
       O    -7.88863  -17.40601    7.89692
      H1    -7.13971  -16.81164    7.96134

