60
frame 0 | Written by MDAnalysis XYZWriter (release 2.4.3)
       H     8.53552    5.96490  -15.47809
       O     8.95597    6.06222  -16.35772
      H1     9.80346    6.52635  -16.18179
       H    10.43642   11.36864  -16.55800
       O    11.38369   11.51087  -16.39102
      H1    11.83657   10.67785  -16.49417
       H    14.88516    4.94566  -12.65664
       O    14.06872    5.41566  -12.77325
      H1    14.38331    6.31242  -12.95979
       H     9.47248    4.78656  -11.72665
       O     9.96251    4.03391  -11.43610
      H1    10.79824    4.38838  -11.09451
       H     9.24525    9.22381  -13.59466
       O    10.05153    9.71423  -13.74310
      H1    10.39970   10.00525  -12.89690
       H    12.90030    5.58463  -11.28997
       O    12.07409    5.52921  -10.80673
      H1    11.98043    6.44001  -10.50577
       H     8.51209    7.50791  -17.43706
       O     8.31428    8.20261  -18.09414
      H1     8.47411    7.78851  -18.93584
       H    11.96162   10.86686  -14.47263
       O    12.74578   10.69010  -13.92576
      H1    13.44007   10.90884  -14.55230
       H    10.35134    4.39435  -13.19575
       O    10.77452    4.92471  -13.89690
      H1    11.49471    4.32571  -14.16572
       H    14.41996   11.47587  -16.43669
       O    14.66321   10.72819  -15.84320
      H1    14.00495   10.03102  -15.93105
       H    11.10690    6.71319  -14.53578
       O    10.98376    7.53739  -15.05229
      H1    10.54163    8.19795  -14.48307
       H    10.17373   13.32960  -11.47971
       O     9.76491   12.80262  -12.14215
      H1    10.28480   12.01099  -12.16209
       H    13.31201    8.82270  -13.00499
       O    13.95329    8.15674  -12.75286
      H1    14.53043    8.54043  -12.04792
       H     8.69235    6.54355  -11.05619
       O     8.09950    6.55237  -11.81964
      H1     7.39220    5.91052  -11.56963
       H     6.64074    9.24033  -10.82802
       O     6.83469   10.07432  -11.32364
      H1     7.16261    9.69978  -12.16215
       H    11.88797   10.90348  -11.00436
       O    11.10409   10.34303  -11.02812
      H1    11.39408    9.57387  -10.49848
       H     7.04459    8.61062  -14.35257
       O     7.64745    8.58919  -13.60477
      H1     7.52602    7.75009  -13.15794
       H    13.46142    4.69406  -14.19471
       O    13.17987    4.46534  -15.12919
      H1    13.12157    3.49260  -15.05501
       H    10.84930    4.78700  -16.86889
       O    11.52304    4.37250  -17.44641
      H1    12.24930    4.28471  -16.85085
       H    13.39415    8.39857  -16.90688
       O    12.63394    8.93964  -16.62681
      H1    12.06419    8.36448  -16.13032

