60
frame 0 | Written by MDAnalysis XYZWriter (release 2.4.3)
       H    12.18845    5.86088    1.46676
       O    11.69458    5.03923    1.69756
      H1    11.80768    4.98689    2.64826
       H    12.39552    3.31065    4.20693
       O    11.73193    3.83113    4.70898
      H1    12.18923    4.65685    4.92891
       H    14.45857    1.52295    1.31366
       O    15.20502    1.34392    0.70506
      H1    15.32751    0.37693    0.71581
       H    17.65254    6.79369    0.51964
       O    17.69502    6.76458   -0.43849
      H1    17.92809    7.64859   -0.65008
       H    13.23216    7.41366   -0.20901
       O    12.96375    7.28147    0.70891
      H1    13.00879    8.22471    1.01937
       H    19.10116    2.61019    1.46209
       O    18.72622    3.28531    0.91747
      H1    18.12704    3.72452    1.53744
       H    16.71619    2.13984   -0.56378
       O    17.41818    2.39360   -1.19344
      H1    18.04745    2.89721   -0.62072
       H    17.39897    3.79460   -3.99794
       O    16.80718    4.08642   -3.31424
      H1    16.65038    3.33662   -2.75328
       H    17.37674    7.43414    2.47534
       O    18.17476    7.91667    2.21284
      H1    18.82482    7.23680    1.99714
       H    15.60861    9.02238   -2.10863
       O    15.77051    8.13817   -2.47243
      H1    16.12024    7.62216   -1.72354
       H    14.61080    4.12380    0.84497
       O    15.17248    4.43756    1.56359
      H1    14.95115    5.39397    1.60491
       H    16.57641    4.19685    3.30719
       O    17.39604    3.67890    3.29215
      H1    17.50588    3.33337    4.21171
       H    16.89609    2.18508    2.96021
       O    16.78684    1.22404    2.89721
      H1    16.17276    1.16105    2.19297
       H    15.15360    8.04113    2.22078
       O    15.46694    7.21087    2.66962
      H1    15.30094    7.37924    3.59845
       H    14.77951    0.52742   -1.34061
       O    14.82515    1.06812   -2.16503
      H1    13.89772    1.15491   -2.49656
       H    14.22668    3.42996    2.66220
       O    13.78254    2.59598    2.90020
      H1    14.42272    2.15936    3.43084
       H    13.75831    4.15171   -1.28238
       O    14.15681    4.96943   -1.62819
      H1    15.06914    4.74057   -1.62955
       H    11.78152    3.35544   -0.90939
       O    12.39909    3.28524   -0.18109
      H1    11.97312    3.87372    0.47860
       H    10.54984    1.68429    1.74160
       O    11.06992    1.26619    1.01535
      H1    11.70992    1.92961    0.68196
       H    13.60692    7.68590   -2.82887
       O    12.82603    7.10367   -2.73803
      H1    13.17347    6.32094   -2.31186

