60
frame 0 | Written by MDAnalysis XYZWriter (release 2.4.3)
       H   -13.03673    5.27214  -13.63854
       O   -12.52096    4.56156  -13.26341
      H1   -11.58722    4.77898  -13.49170
       H   -11.18181    6.91755  -10.17136
       O   -11.30149    6.51432  -11.03668
      H1   -10.62996    6.94129  -11.57174
       H   -13.19818    1.23481   -8.81223
       O   -14.02805    1.04937   -9.27982
      H1   -13.95252    1.47390  -10.16723
       H   -17.02009    0.64400  -10.34333
       O   -16.85701    1.44531  -10.86305
      H1   -17.27935    1.28930  -11.70887
       H   -11.31643    4.89476  -10.57947
       O   -10.92679    4.14155  -10.10383
      H1   -11.69524    3.72964   -9.67937
       H   -13.06303    6.77218  -12.24588
       O   -13.87399    6.83012  -12.73893
      H1   -14.20999    7.72449  -12.56645
       H   -16.24249    1.26727  -13.55840
       O   -15.42411    1.77270  -13.73471
      H1   -15.61458    2.62687  -13.36190
       H   -14.71857    5.84046  -11.52950
       O   -14.76524    5.33341  -10.70234
      H1   -15.73003    5.19489  -10.56025
       H   -12.18597    1.98471   -7.19176
       O   -11.76326    1.79783   -8.02927
      H1   -11.34155    0.94454   -7.87087
       H   -13.23700   -1.64064  -10.74250
       O   -13.00844   -1.71538   -9.81656
      H1   -13.11675   -0.80994   -9.48480
       H   -17.46810    3.19423   -8.65738
       O   -17.95120    3.33825   -9.46600
      H1   -17.54959    2.64655  -10.05124
       H   -11.16268    2.02881  -11.00952
       O   -11.85635    1.45294  -11.33926
      H1   -12.60811    2.04080  -11.19211
       H   -11.87746   -0.00323  -12.44437
       O   -11.50228   -0.86443  -12.64857
      H1   -10.66682   -0.88238  -12.16634
       H   -13.75933    6.51711   -9.84280
       O   -13.41282    6.92333   -9.05451
      H1   -14.04689    7.64273   -8.89692
       H   -14.08051    0.77970  -15.46748
       O   -13.25111    0.89853  -15.91612
      H1   -12.70748    1.40306  -15.32624
       H   -16.34497    5.26280  -14.61310
       O   -16.25055    5.10152  -13.65308
      H1   -15.42891    5.56031  -13.44627
       H   -13.39743    3.65825  -12.02269
       O   -13.96971    3.00379  -11.53777
      H1   -14.41036    3.62850  -10.92507
       H   -13.97093    3.16710   -8.36697
       O   -13.55789    4.00370   -8.23249
      H1   -13.99052    4.60269   -8.87175
       H   -11.67647    2.43774  -13.80940
       O   -11.02816    2.09087  -14.47314
      H1   -10.91177    2.79860  -15.13845
       H   -18.05324    4.63192  -10.70407
       O   -17.53777    5.35096  -11.12799
      H1   -17.58170    5.07502  -12.08068

