60
frame 0 | Written by MDAnalysis XYZWriter (release 2.4.3)
       H    -3.73669   18.70041  -11.21003
       O    -3.71608   18.16563  -10.42805
      H1    -4.20611   18.74406   -9.83645
       H     2.74842   17.86725   -8.62698
       O     3.69756   17.90179   -8.70968
      H1     3.89177   18.77925   -8.35839
       H     4.24070   15.31674   -8.46447
       O     4.02370   14.52442   -7.95009
      H1     4.59929   13.88450   -8.32643
       H     1.02808   16.23302   -9.26817
       O     1.12582   16.98876   -8.67958
      H1     0.46411   17.66406   -8.94971
       H     3.20178   14.31356  -13.38631
       O     3.10255   13.89815  -14.24245
      H1     4.03840   13.81177  -14.46107
       H    -0.93329   12.70872  -12.36607
       O    -1.23767   12.33344  -13.17187
      H1    -1.49449   13.07428  -13.78525
       H    -1.17279   11.19980   -9.86491
       O    -1.91913   10.73235   -9.39958
      H1    -1.65660   10.90444   -8.47561
       H     0.24650   13.36094  -10.71527
       O     0.22302   12.42995  -10.80905
      H1     1.16194   12.26528  -10.76666
       H     3.70344   15.56958  -11.54417
       O     3.23784   14.70411  -11.58294
      H1     3.89835   14.05428  -11.24201
       H    -0.06909   18.07383  -12.66184
       O     0.07947   17.17705  -12.97349
      H1     0.66277   17.31380  -13.74661
       H     1.79113   12.51575  -14.26273
       O     1.10097   11.86494  -14.28482
      H1     0.40410   12.23084  -13.72524
       H     1.51856   15.10247  -10.92011
       O     0.63284   15.33071  -10.66184
      H1     0.32445   15.81849  -11.40141
       H     5.60776   16.52955  -10.89954
       O     4.70060   16.80074  -10.99767
      H1     4.49023   17.19673  -10.13821
       H    -2.39260   14.02931   -9.18943
       O    -3.04187   14.27813   -9.88440
      H1    -3.19724   13.42010  -10.30527
       H    -3.06506   16.54943  -11.52100
       O    -3.02358   15.87564  -12.21828
      H1    -2.96505   15.04284  -11.72819
       H    -2.08411   15.30099  -14.00754
       O    -2.07332   14.53644  -14.61253
      H1    -1.80813   14.93671  -15.43293
       H    -4.29512   15.35430   -8.99853
       O    -4.90808   15.65770   -8.32219
      H1    -4.98204   14.87783   -7.75089
       H     4.27975   18.04013  -12.59618
       O     4.32775   18.78006  -13.20208
      H1     4.53508   19.51232  -12.62600
       H    -1.19469   13.29325   -7.44929
       O    -1.54785   14.18403   -7.53204
      H1    -1.99697   14.25058   -6.65743
       H     4.43422   15.85011  -15.85158
       O     3.51180   16.18150  -15.96469
      H1     2.98098   15.63108  -15.35142

