60
frame 0 | Written by MDAnalysis XYZWriter (release 2.4.3)
       H    11.45068   17.39761   18.27262
       O    10.48924   17.51416   18.14725
      H1    10.41363   17.67028   17.20559
       H    14.90363   18.93274   10.25970
       O    14.42864   18.61517    9.45538
      H1    15.13670   18.64654    8.82120
       H    16.92200   17.29382   16.15051
       O    16.25180   16.82840   15.63168
      H1    15.95740   16.09071   16.18438
       H     9.46997   19.02076   15.23989
       O     9.67132   18.15882   15.61116
      H1     8.78462   17.89244   15.92795
       H    17.37053   17.68183   18.46450
       O    17.54614   18.18522   17.64129
      H1    18.28192   17.69948   17.29521
       H    14.48949   17.60730   12.66606
       O    13.56153   17.84995   12.51671
      H1    13.37708   17.19547   11.80788
       H    18.34384   14.17540   18.05500
       O    18.32192   13.61812   17.24586
      H1    17.95201   14.21647   16.58872
       H    16.59315   16.99126   13.67343
       O    16.41398   17.03081   12.71669
      H1    16.40016   16.10021   12.44143
       H    11.32445   17.08904   14.50023
       O    11.97725   16.41683   14.76318
      H1    12.75018   16.67874   14.27980
       H    13.43388   18.10148   17.01253
       O    13.15432   17.17786   17.10458
      H1    12.72734   16.97116   16.26616
       H    11.80546   14.78508   14.33840
       O    11.76944   13.81039   14.30524
      H1    11.83140   13.46426   15.24363
       H    14.54816   14.39809   12.86532
       O    14.08191   14.82482   13.57273
      H1    13.27722   14.25454   13.64949
       H    10.13645   15.88817   18.44741
       O    10.07824   14.94172   18.64285
      H1     9.13112   14.75782   18.60304
       H    14.90019   14.01619   15.11806
       O    15.38086   14.12541   15.95960
      H1    14.77446   13.92514   16.69561
       H    16.00885   12.69820   15.89296
       O    16.40244   11.81652   15.89971
      H1    17.29111   12.03511   16.24882
       H    15.54742   19.25775   17.29504
       O    15.01844   19.21243   16.48064
      H1    15.39145   18.42857   16.06296
       H    18.32206   16.92966   10.13807
       O    17.94934   17.72534   10.53733
      H1    17.40268   17.38125   11.25527
       H    13.51212   15.91727   18.15724
       O    13.92462   15.24828   18.74502
      H1    13.21977   14.59737   18.90722
       H    17.95410   14.64096   13.79545
       O    17.94098   14.88145   14.75129
      H1    17.04962   15.26860   14.86285
       H    11.83539   17.56930   12.24511
       O    10.91587   17.34134   12.19981
      H1    10.94123   16.39453   12.32479

