60
frame 1 | Written by MDAnalysis XYZWriter (release 2.4.3)
       H    15.61540   -5.70804   11.48935
       O    15.25659   -5.02915   12.04277
      H1    15.92073   -4.89659   12.72849
       H    17.67628   -5.18998   18.00232
       O    18.43629   -4.86365   18.52494
      H1    18.92464   -4.40392   17.82295
       H    17.17526   -3.97481   14.51073
       O    16.51201   -4.67310   14.29207
      H1    15.81818   -4.48573   14.93362
       H    17.51178   -7.27896   10.32844
       O    17.74232   -6.33441   10.46287
      H1    18.42346   -6.16078    9.81529
       H    14.74466   -8.01819   11.56677
       O    15.23403   -7.80557   10.74543
      H1    14.54167   -7.40399   10.21134
       H    19.43333  -10.13367   18.53537
       O    18.90800   -9.33591   18.30108
      H1    18.03811   -9.69732   18.30908
       H    13.30179   -3.63369   15.37994
       O    14.09279   -3.98584   15.78773
      H1    13.76978   -4.57207   16.48155
       H    14.52787   -9.49423   13.56867
       O    14.72586   -8.52610   13.48213
      H1    15.61977   -8.41788   13.83278
       H    15.58819  -10.97468   15.33583
       O    16.51498  -10.68211   15.27231
      H1    16.80427  -11.18386   14.49368
       H    12.20243   -7.09375   16.76587
       O    12.85887   -7.56547   16.28138
      H1    12.95510   -7.10576   15.44295
       H    17.08363  -11.33258   12.18971
       O    16.50888  -11.88047   12.75047
      H1    15.72543  -11.33898   12.90381
       H    18.67268   -9.68446   12.11784
       O    18.54472   -9.89718   13.04747
      H1    19.38060  -10.21312   13.31714
       H    15.35827   -6.40222   17.15438
       O    16.28686   -6.27302   17.01098
      H1    16.56314   -7.00371   16.44872
       H    17.24408   -3.13100   12.17499
       O    16.91432   -2.62875   11.41335
      H1    16.48298   -3.27138   10.82429
       H    13.58198   -6.43280   13.13012
       O    12.70412   -6.41313   13.51062
      H1    12.48615   -5.47524   13.55816
       H    11.52073  -10.16523   16.50207
       O    12.46406  -10.02922   16.68001
      H1    12.69668   -9.14700   16.36318
       H    14.90562  -11.61579   17.47093
       O    14.19322  -12.17279   17.13805
      H1    13.52834  -11.55806   16.80504
       H    13.29732  -11.98213   14.20953
       O    13.46427  -11.11679   13.80936
      H1    12.62698  -11.05669   13.33172
       H    17.82587   -7.78573   15.13805
       O    17.14553   -7.48721   14.51721
      H1    17.08344   -6.55340   14.64120
       H    16.88154  -10.81927   17.07998
       O    16.61749  -10.73924   18.03191
      H1    16.17891   -9.84982   18.02983

