60
frame 0 | Written by MDAnalysis XYZWriter (release 2.4.3)
       H     2.89002   16.17861  -17.60177
       O     2.75297   16.24058  -18.55688
      H1     2.72298   17.18439  -18.73013
       H     5.58110   11.40431  -11.81458
       O     4.88195   12.03274  -11.98186
      H1     4.38945   11.53743  -12.63691
       H     3.16044    9.83766  -16.63495
       O     3.56594   10.69863  -16.49515
      H1     3.06046   11.32631  -17.03538
       H     0.43986   12.30859  -15.87641
       O     0.08672   12.71635  -16.69481
      H1    -0.60899   12.09417  -16.99906
       H     3.20178   14.31356  -13.38631
       O     3.10255   13.89815  -14.24245
      H1     4.03840   13.81177  -14.46107
       H    -0.93329   12.70872  -12.36607
       O    -1.23767   12.33344  -13.17187
      H1    -1.49449   13.07428  -13.78525
       H     5.67051   11.48990  -16.26137
       O     6.51566   11.80814  -15.87018
      H1     7.15023   11.66872  -16.58125
       H     0.24650   13.36094  -10.71527
       O     0.22302   12.42995  -10.80905
      H1     1.16194   12.26528  -10.76666
       H     3.70344   15.56958  -11.54417
       O     3.23784   14.70411  -11.58294
      H1     3.89835   14.05428  -11.24201
       H     6.20705   13.44151  -11.84906
       O     6.82187   14.17133  -11.74723
      H1     7.67370   13.75893  -11.71124
       H     3.66330   11.48559  -10.31430
       O     2.80300   11.44639   -9.87304
      H1     2.52026   10.53582   -9.83328
       H    -0.06909   18.07383  -12.66184
       O     0.07947   17.17705  -12.97349
      H1     0.66277   17.31380  -13.74661
       H     1.79113   12.51575  -14.26273
       O     1.10097   11.86494  -14.28482
      H1     0.40410   12.23084  -13.72524
       H     1.51856   15.10247  -10.92011
       O     0.63284   15.33071  -10.66184
      H1     0.32445   15.81849  -11.40141
       H     5.60776   16.52955  -10.89954
       O     4.70060   16.80074  -10.99767
      H1     4.49023   17.19673  -10.13821
       H     6.29491   14.15424  -13.60117
       O     5.93914   14.13317  -14.50041
      H1     6.23585   13.30223  -14.89064
       H     1.06739   10.19127  -13.43132
       O     1.30260    9.34850  -13.07316
      H1     0.48070    9.05220  -12.67698
       H     4.27975   18.04013  -12.59618
       O     4.32775   18.78006  -13.20208
      H1     4.53508   19.51232  -12.62600
       H     4.43422   15.85011  -15.85158
       O     3.51180   16.18150  -15.96469
      H1     2.98098   15.63108  -15.35142
       H     2.99488    9.72380  -13.74707
       O     3.87522   10.09822  -13.88764
      H1     3.78185   10.51292  -14.74914

