60
frame 1 | Written by MDAnalysis XYZWriter (release 2.4.3)
       H    -3.99896   17.89849  -12.63040
       O    -3.84154   17.12686  -12.05806
      H1    -4.41776   17.29751  -11.30455
       H    -8.32202   14.14858  -10.22448
       O    -7.91578   13.41331  -10.69012
      H1    -7.75132   13.82610  -11.54443
       H    -9.00734   11.42294   -7.82673
       O    -9.59548   12.18925   -7.98032
      H1   -10.47828   11.86143   -7.75314
       H    -6.11580   12.95891   -8.28380
       O    -5.72520   12.21283   -8.76737
      H1    -4.86550   12.03761   -8.41367
       H    -6.90126   14.02781  -13.32046
       O    -7.82358   14.26265  -13.39828
      H1    -7.79643   15.23465  -13.46438
       H    -5.97993   10.88495  -10.37990
       O    -6.46717   10.99038  -11.19145
      H1    -6.94352   11.81576  -11.01624
       H    -3.26042   12.08467  -11.35099
       O    -3.13716   13.01569  -11.49478
      H1    -4.00603   13.36352  -11.78266
       H    -5.16139   14.98913  -12.71689
       O    -5.22849   14.20086  -13.24117
      H1    -5.41164   14.48707  -14.16174
       H    -6.25130   19.15697   -9.29772
       O    -6.36858   18.40277   -9.87654
      H1    -6.12611   17.64976   -9.32606
       H    -3.69143   14.88248   -6.82231
       O    -4.58009   14.53683   -6.76348
      H1    -4.50470   13.83727   -6.11437
       H    -6.36961   14.26297   -6.72251
       O    -7.20076   14.17233   -7.20516
      H1    -7.83507   14.04216   -6.49114
       H    -3.08115   10.47760   -8.90996
       O    -3.06189   11.28095   -8.36399
      H1    -2.14160   11.46095   -8.24122
       H    -7.64912   17.34772   -6.91493
       O    -7.14646   16.86292   -7.57141
      H1    -7.40392   15.96268   -7.49567
       H    -5.28226   10.34570  -14.15444
       O    -5.09156   11.27919  -13.93816
      H1    -5.29100   11.29688  -12.99005
       H    -4.39031   16.96751   -5.90326
       O    -4.30807   17.26218   -6.85411
      H1    -4.94097   16.70177   -7.35109
       H    -1.79733   13.54027   -8.31598
       O    -2.07638   14.04650   -9.06860
      H1    -2.38669   13.38861   -9.68193
       H    -2.47078   15.82957  -11.84223
       O    -1.55756   15.49730  -11.84781
      H1    -1.58165   14.62196  -11.43364
       H    -4.21034   14.74320   -9.49881
       O    -5.09120   14.95289   -9.76654
      H1    -5.69331   14.30075   -9.40025
       H    -9.35380   16.40044   -9.99878
       O    -8.99019   15.71981   -9.42867
      H1    -8.32966   16.22136   -8.93561
       H    -6.74112   10.97683   -8.15224
       O    -7.51845   10.42928   -7.91328
      H1    -7.26353   10.05045   -7.07264

