60
frame 0 | Written by MDAnalysis XYZWriter (release 2.4.3)
       H    -8.88986   16.27658   -4.15847
       O    -8.96914   16.87042   -4.92640
      H1    -9.67950   17.46361   -4.63456
       H    -8.95754    9.88113   -0.54505
       O    -9.14681   10.53654    0.13096
      H1    -8.30644   10.94573    0.30233
       H    -7.04476   13.54590   -0.63636
       O    -7.27827   14.18771   -1.30478
      H1    -7.84639   14.80092   -0.79318
       H   -12.64907   16.58801   -2.35134
       O   -12.75819   16.77286   -1.41546
      H1   -12.90905   15.91258   -0.97328
       H   -10.60015   12.90528   -1.95997
       O   -11.50328   13.25411   -1.89226
      H1   -12.07361   12.55301   -2.20143
       H    -9.62716   16.60942    0.11251
       O    -9.31168   15.72139   -0.12028
      H1    -9.86921   15.11302    0.38980
       H   -10.53025   18.26499    2.03830
       O   -10.20139   17.83350    2.83476
      H1   -10.68270   16.98804    2.92252
       H   -10.04138   13.07502    4.36491
       O   -10.21779   13.93176    4.80196
      H1    -9.62054   13.87884    5.55487
       H    -6.01587   15.00211   -2.49091
       O    -5.22376   15.39136   -2.89620
      H1    -4.45750   15.00958   -2.45287
       H   -13.62682   18.85408    0.72196
       O   -14.33086   18.36514    0.27060
      H1   -13.89474   17.69531   -0.27695
       H    -8.37293   12.92198   -2.08321
       O    -8.93123   12.15770   -2.17824
      H1    -8.94411   11.73734   -1.30135
       H   -11.31527   15.11462    3.77184
       O   -11.82693   15.57314    3.07081
      H1   -12.34348   16.19792    3.58276
       H    -9.65864   15.63130   -1.96430
       O    -9.94094   15.44483   -2.86597
      H1   -10.67588   14.84179   -2.74958
       H   -15.06475   14.51791   -0.53602
       O   -14.22854   14.73612   -0.10169
      H1   -14.32969   14.51501    0.81016
       H   -11.30612   14.35159    1.47355
       O   -11.05389   13.58684    0.90392
      H1   -11.60635   13.68807    0.10780
       H    -7.22015   12.77526    1.70050
       O    -7.17400   12.33229    0.82561
      H1    -6.35899   11.83884    0.74520
       H    -8.49423   13.06290    3.65249
       O    -7.85464   13.69210    3.32515
      H1    -7.94905   14.44488    3.93321
       H   -12.62500   11.59991    2.54061
       O   -12.38484   11.45077    1.61095
      H1   -11.75647   12.16564    1.46685
       H    -8.47851   16.67396    4.99564
       O    -8.15521   16.42823    4.13231
      H1    -8.52924   17.13933    3.58258
       H   -11.43787   18.13249   -0.53120
       O   -10.79095   18.36837    0.14569
      H1   -10.02007   18.60995   -0.33075

