60
frame 1 | Written by MDAnalysis XYZWriter (release 2.4.3)
       H   -15.78981    8.23613   10.30028
       O   -15.10731    8.90989   10.42443
      H1   -14.30571    8.32531   10.34451
       H   -15.90251   11.96748   11.44076
       O   -15.59438   11.88076   10.53621
      H1   -15.20163   11.01855   10.56246
       H   -15.97917    7.42011   13.54855
       O   -15.75768    6.46666   13.55731
      H1   -16.42691    6.12656   14.12693
       H   -16.61840    4.90866    5.02080
       O   -16.35300    5.44621    5.77245
      H1   -16.06900    4.79730    6.43279
       H   -18.37877    6.15510    6.19486
       O   -18.95563    6.84163    5.78983
      H1   -19.42286    6.34897    5.12039
       H   -14.10701    7.65874    5.15995
       O   -15.02747    7.86957    5.41329
      H1   -15.29026    7.06917    5.82498
       H   -18.81945    9.10723   11.46332
       O   -18.39920    8.42957   11.99774
      H1   -19.13528    7.94889   12.42676
       H   -17.08090    8.94197   13.02333
       O   -16.29050    9.13380   13.53809
      H1   -16.63601    9.35692   14.41972
       H   -18.46208    7.87148    8.99155
       O   -17.75752    7.53479    9.54771
      H1   -18.05219    7.77501   10.43124
       H   -18.36854   11.54563   10.98382
       O   -18.26661   10.90392   10.30037
      H1   -17.28062   10.89073   10.19181
       H   -15.78668    4.38069    8.80753
       O   -16.53521    3.87466    8.46621
      H1   -16.31686    2.96729    8.61550
       H   -18.68287   12.51065    6.95771
       O   -18.26156   12.93198    6.20187
      H1   -17.32755   12.69126    6.33253
       H   -17.75576    8.13075    4.20980
       O   -17.15190    8.69947    3.76520
      H1   -16.30360    8.54993    4.20906
       H   -17.62032    3.44135   12.22329
       O   -18.38668    3.91752   12.53712
      H1   -18.48108    4.65997   11.91688
       H   -17.95898    9.80373    4.91025
       O   -18.27105   10.05393    5.79534
      H1   -18.24118   11.00969    5.76183
       H   -17.90176    4.48685    9.42312
       O   -18.59037    4.96110    9.92957
      H1   -18.33936    5.88407    9.89808
       H   -17.42644    9.64274    7.25705
       O   -16.68688    9.60627    7.89282
      H1   -17.06745    9.06989    8.57633
       H   -13.95917    5.96137    8.09417
       O   -14.55322    5.54533    8.74032
      H1   -14.28981    5.87648    9.59380
       H   -16.05161   11.04946    6.87040
       O   -15.75368   11.93807    6.71840
      H1   -15.22622   11.80707    5.92824
       H   -14.37384    9.16583    8.25407
       O   -13.67062    8.75126    7.72752
      H1   -14.16907    8.53673    6.90254

