60
frame 0 | Written by MDAnalysis XYZWriter (release 2.4.3)
       H     5.82528  -12.74062   15.21078
       O     5.17789  -12.06367   14.95917
      H1     4.62762  -11.93410   15.73537
       H    10.48940  -12.77553   12.04853
       O    10.94956  -13.05121   12.85899
      H1    10.42101  -12.70284   13.56899
       H     8.49686  -14.94115   11.16760
       O     9.02850  -15.44441   10.55890
      H1     8.44656  -15.95964   10.00314
       H     8.65715  -12.43416    9.91387
       O     8.75706  -12.46189    8.96291
      H1     8.56208  -11.50673    8.74496
       H     7.75502  -14.28508   14.17058
       O     7.34705  -13.43312   14.03134
      H1     7.70732  -13.16522   13.13181
       H     9.22089   -9.20050   13.10869
       O     9.26231   -9.31685   12.18716
      H1     8.85094   -8.51089   11.82528
       H    10.34321  -12.10047    9.75145
       O    10.97791  -11.72361   10.37742
      H1    11.75060  -12.27795   10.27129
       H     6.09335  -10.03416   12.91707
       O     6.94336  -10.28220   13.29980
      H1     7.54297   -9.71652   12.76159
       H     7.52087   -7.02907    9.93211
       O     7.66469   -7.71149   10.58582
      H1     7.36826   -8.49322   10.15331
       H     5.76505  -13.39469   10.89940
       O     6.35587  -14.12367   11.09900
      H1     6.26105  -14.66849   10.31124
       H     8.70080   -9.28003    8.17455
       O     8.10502   -9.75749    8.75746
      H1     7.26392   -9.56844    8.37449
       H    11.57394  -15.71874    8.57647
       O    11.01221  -14.94358    8.64624
      H1    10.28559  -15.24897    9.24408
       H     6.04199  -15.07452   12.59038
       O     5.77875  -15.89544   13.04239
      H1     5.34930  -15.59713   13.85249
       H     5.31571  -11.00527   10.15693
       O     5.15598  -11.94255   10.25695
      H1     5.03267  -12.14492    9.31826
       H     5.93309  -10.03693   16.36075
       O     6.13772   -9.23032   15.93773
      H1     6.35873   -9.51375   15.02873
       H     7.99871  -11.42590   12.16271
       O     8.23164  -12.24843   11.70526
      H1     7.36896  -12.59571   11.48348
       H     8.68218  -12.90776   14.94602
       O     9.51293  -12.66112   15.37552
      H1     9.87234  -13.46008   15.82158
       H    11.14625  -16.09578   12.26871
       O    10.92578  -15.83144   13.16182
      H1    10.77084  -14.87134   13.07024
       H    11.11627   -8.86574   11.57037
       O    11.60160   -9.39884   10.94709
      H1    11.08046  -10.19894   10.92273
       H     8.17865  -14.08219    7.80572
       O     7.50917  -14.54612    7.29649
      H1     8.07419  -15.09737    6.74492

