60
frame 0 | Written by MDAnalysis XYZWriter (release 2.4.3)
       H     4.68965    4.50012  -18.98935
       O     5.42904    5.06345  -18.63200
      H1     6.22155    4.52768  -18.68408
       H     8.53552    5.96490  -15.47809
       O     8.95597    6.06222  -16.35772
      H1     9.80346    6.52635  -16.18179
       H    10.43642   11.36864  -16.55800
       O    11.38369   11.51087  -16.39102
      H1    11.83657   10.67785  -16.49417
       H     3.16044    9.83766  -16.63495
       O     3.56594   10.69863  -16.49515
      H1     3.06046   11.32631  -17.03538
       H     4.97355    8.91122  -14.72204
       O     5.46964    8.37127  -15.35977
      H1     4.87632    7.63008  -15.55281
       H     8.45471    4.78005  -17.89684
       O     7.87966    4.30871  -18.46366
      H1     8.43139    3.88195  -19.11556
       H     9.24525    9.22381  -13.59466
       O    10.05153    9.71423  -13.74310
      H1    10.39970   10.00525  -12.89690
       H     8.51209    7.50791  -17.43706
       O     8.31428    8.20261  -18.09414
      H1     8.47411    7.78851  -18.93584
       H    11.96162   10.86686  -14.47263
       O    12.74578   10.69010  -13.92576
      H1    13.44007   10.90884  -14.55230
       H     8.35506   12.20988  -17.99666
       O     8.72145   11.49659  -17.46794
      H1     9.15555   10.93348  -18.14720
       H     7.07300    4.18042  -14.72603
       O     6.90998    5.09724  -14.54954
      H1     6.21589    5.34966  -15.16858
       H    11.10690    6.71319  -14.53578
       O    10.98376    7.53739  -15.05229
      H1    10.54163    8.19795  -14.48307
       H     1.33503    8.41990  -18.81924
       O     2.15166    8.40484  -18.30541
      H1     2.83660    8.13860  -18.94783
       H     5.67051   11.48990  -16.26137
       O     6.51566   11.80814  -15.87018
      H1     7.15023   11.66872  -16.58125
       H     4.88209   11.50126  -18.62172
       O     4.96247   12.43037  -18.57700
      H1     5.89959   12.52417  -18.36285
       H     5.28342    9.52547  -17.29537
       O     5.80725    9.51469  -18.10925
      H1     6.62532    9.05234  -17.87886
       H     7.04459    8.61062  -14.35257
       O     7.64745    8.58919  -13.60477
      H1     7.52602    7.75009  -13.15794
       H    10.84930    4.78700  -16.86889
       O    11.52304    4.37250  -17.44641
      H1    12.24930    4.28471  -16.85085
       H     3.89134    5.21327  -15.87961
       O     4.46916    5.87872  -16.29639
      H1     4.80106    5.46068  -17.09589
       H    13.39415    8.39857  -16.90688
       O    12.63394    8.93964  -16.62681
      H1    12.06419    8.36448  -16.13032

