60
frame 0 | Written by MDAnalysis XYZWriter (release 2.4.3)
       H    -3.34337   -0.35397   -2.55806
       O    -3.37984   -0.82468   -1.68231
      H1    -2.73027   -0.34218   -1.12251
       H    -6.20642    4.49808   -5.25523
       O    -5.76899    4.17547   -4.47049
      H1    -5.56191    3.31514   -4.88255
       H    -7.56514    4.75213   -1.23501
       O    -6.54730    4.75361   -1.12812
      H1    -6.34517    5.32064   -1.95426
       H    -7.16583    2.58417    3.23683
       O    -7.65855    1.81899    2.79073
      H1    -8.18725    1.41377    3.46022
       H    -9.17231   -1.96181    0.88100
       O    -9.34449   -1.42220    0.08667
      H1    -8.46009   -1.36112   -0.24185
       H    -6.45101   -2.21160    0.14805
       O    -6.45420   -2.08072    1.09904
      H1    -6.36264   -1.09877    1.17920
       H    -9.23233   -2.32109   -3.71838
       O    -8.97139   -1.69074   -4.44429
      H1    -8.61222   -1.01770   -3.89007
       H    -9.69989    6.42490    2.16177
       O    -8.87258    6.38469    1.67809
      H1    -8.90870    5.48891    1.29146
       H    -7.00338    0.66321   -2.79986
       O    -6.97095   -0.13473   -3.39109
      H1    -6.66344   -0.72257   -2.71740
       H    -9.60791    0.34991    0.55382
       O    -9.94314    1.19966    0.83552
      H1    -9.37725    1.34264    1.61648
       H    -6.69860    2.78671   -1.83518
       O    -7.07612    1.93700   -1.54370
      H1    -6.67982    1.84275   -0.66654
       H   -11.66487    1.16661   -1.60360
       O   -12.02979    1.42737   -0.72495
      H1   -11.16962    1.43553   -0.25030
       H    -3.06059    3.21420   -1.15515
       O    -3.35773    3.89596   -0.47345
      H1    -2.65946    4.54998   -0.65175
       H    -5.00174   -1.33497   -1.47033
       O    -5.92119   -1.71028   -1.47972
      H1    -5.61086   -2.66299   -1.67324
       H    -8.50879    3.11803   -1.42023
       O    -9.01915    3.91431   -1.02147
      H1    -9.52233    4.16008   -1.82262
       H    -4.85329    0.76178    1.17263
       O    -5.74436    0.75939    0.81769
      H1    -6.34706    1.21363    1.45771
       H    -2.90903    1.69562    2.19453
       O    -3.05710    1.30178    1.28281
      H1    -3.22667    2.11136    0.82596
       H    -6.47012   -0.73969   -6.46012
       O    -6.47256    0.14031   -5.98844
      H1    -6.64859   -0.20382   -5.05365
       H    -5.52641    5.24597    0.15101
       O    -5.03492    5.84084    0.68731
      H1    -4.17008    5.49401    0.72316
       H    -5.42687    3.16421    4.56630
       O    -5.13591    3.22519    3.64989
      H1    -5.30986    4.15978    3.61211

