60
frame 0 | Written by MDAnalysis XYZWriter (release 2.4.3)
       H    -4.91602   -3.30978    6.77170
       O    -5.23299   -4.06549    6.25818
      H1    -4.61764   -4.75128    6.50334
       H    -6.25998   -6.93445    7.77211
       O    -5.66677   -7.69905    7.86307
      H1    -4.80759   -7.33832    8.03571
       H    -7.60157   -7.80979    4.94448
       O    -8.47797   -7.39944    5.03451
      H1    -8.57188   -7.21629    5.98441
       H    -4.72365   -6.75966   11.56401
       O    -5.38714   -6.35815   12.16122
      H1    -6.24634   -6.39901   11.72028
       H    -1.89144  -10.11116    6.35576
       O    -2.85636  -10.17489    6.54354
      H1    -2.89363  -10.03096    7.45463
       H    -9.54329   -4.52221    5.97867
       O    -8.60734   -4.46420    5.69854
      H1    -8.69846   -4.47492    4.72609
       H    -8.61029  -10.51528    7.88618
       O    -8.41238  -10.18537    8.79436
      H1    -7.78448  -10.83152    9.08909
       H    -3.40532   -8.11033    5.45219
       O    -3.98959   -7.36568    5.25618
      H1    -4.87820   -7.72471    5.40250
       H    -6.02543   -8.72537    6.51246
       O    -6.36843   -8.97680    5.63998
      H1    -6.42195   -9.92898    5.65571
       H    -2.74021   -5.78913    7.15016
       O    -3.42931   -5.78227    7.83733
      H1    -3.14436   -5.05190    8.39932
       H    -5.05836   -2.89466    8.85965
       O    -5.30819   -3.61473    9.42338
      H1    -5.76364   -4.24526    8.87822
       H    -7.68048   -5.24642    9.69533
       O    -8.25680   -5.39191   10.44905
      H1    -8.33204   -4.53841   10.91388
       H    -8.77399   -9.59503    5.60888
       O    -8.87045  -10.41454    6.06069
      H1    -8.52116  -11.09394    5.46560
       H   -11.09964   -5.96090   11.01559
       O   -10.94331   -5.71760   10.07815
      H1   -10.01742   -5.92761    9.93211
       H    -8.37195   -8.40012    8.28673
       O    -8.59213   -7.49791    8.04009
      H1    -9.54996   -7.58926    7.84693
       H    -5.56870  -11.40068    8.20848
       O    -5.45207  -11.31544    7.22312
      H1    -4.63384  -10.81648    7.16738
       H    -3.10583   -7.21165    9.72118
       O    -3.39774   -7.68299   10.48320
      H1    -3.97573   -8.33602   10.06575
       H    -7.60076   -5.92983    7.88811
       O    -6.81919   -5.38441    7.98211
      H1    -6.77745   -5.02184    7.05193
       H    -8.24886   -7.20365   10.72689
       O    -8.22118   -8.03233   11.19308
      H1    -8.45571   -8.71926   10.58035
       H    -6.02431   -8.69802    9.29880
       O    -5.78404   -9.23450   10.09426
      H1    -6.54311   -9.27776   10.67243

