60
frame 0 | Written by MDAnalysis XYZWriter (release 2.4.3)
       H    -7.03818   -5.10541   15.74014
       O    -6.85096   -5.41800   14.85723
      H1    -6.05258   -4.92185   14.62208
       H    -3.76597   -2.52527   12.79516
       O    -3.11424   -1.88143   12.55357
      H1    -2.52071   -1.78882   13.31276
       H    -5.62218   -2.62697   12.69524
       O    -6.00141   -1.96502   12.10252
      H1    -6.82140   -2.34509   11.76767
       H    -3.80856   -0.70104   15.45384
       O    -4.06805   -1.20677   16.23561
      H1    -5.04787   -1.14536   16.16534
       H    -7.52303   -1.22146   13.30835
       O    -8.40724   -0.94533   13.57929
      H1    -8.25749   -0.53563   14.42636
       H    -3.61135    1.80823   12.72682
       O    -3.49596    2.37657   11.98349
      H1    -4.03837    3.15186   12.21323
       H    -4.27084   -2.06623   18.76785
       O    -3.91388   -1.30295   19.26970
      H1    -3.55468   -0.71982   18.59422
       H    -6.46361    0.74236   18.68009
       O    -6.78660    1.29239   17.95653
      H1    -6.04351    1.63959   17.45534
       H    -4.59939    1.34897   15.16799
       O    -4.75869    2.03551   15.81419
      H1    -4.45112    2.82227   15.36508
       H    -7.24954   -1.64527   16.91218
       O    -6.69641   -1.09541   16.32625
      H1    -6.44345   -0.31933   16.85037
       H    -2.43948    0.62594   17.88321
       O    -2.84514    1.50046   17.83794
      H1    -3.41940    1.36034   17.04834
       H    -3.30018   -0.24069   13.45532
       O    -3.52408    0.45767   14.06854
      H1    -2.65787    0.78862   14.34689
       H    -4.95448   -4.24852   18.33431
       O    -5.30933   -3.52319   18.82798
      H1    -6.15082   -3.36182   18.37103
       H    -0.69551   -1.73451   18.24757
       O    -1.05548   -0.98417   17.78455
      H1    -0.39892   -0.29536   18.02549
       H    -0.55644   -1.53910   15.15150
       O    -1.07340   -1.44878   14.33931
      H1    -0.63993   -0.77619   13.83199
       H    -3.22469   -2.72528   15.52579
       O    -3.17342   -3.66451   15.37592
      H1    -2.49385   -3.74512   14.69090
       H    -3.16721   -4.75967   16.94123
       O    -3.50275   -5.12556   17.77856
      H1    -2.89489   -4.80435   18.45565
       H    -0.58534    1.72209   15.15593
       O    -1.43810    1.42313   15.46871
      H1    -1.52506    1.92467   16.30429
       H    -4.61795   -4.85786   12.82552
       O    -4.79642   -4.06490   13.36783
      H1    -4.31374   -4.19603   14.20724
       H    -7.70672   -4.39889   17.99630
       O    -7.47388   -3.89191   17.23263
      H1    -8.24071   -3.30172   17.14124

