60
frame 0 | Written by MDAnalysis XYZWriter (release 2.4.3)
       H    11.10822  -10.06651   -6.75973
       O    10.66834  -10.84392   -7.07056
      H1    11.36096  -11.20103   -7.66384
       H    10.62827   -9.02398  -10.18400
       O    11.42778   -9.40507  -10.54473
      H1    11.48448   -9.00447  -11.37805
       H    15.55818  -10.67784   -7.73353
       O    15.48494  -10.07203   -8.49750
      H1    14.70074  -10.42123   -8.90270
       H    12.99092  -12.01999   -9.73709
       O    12.92188  -11.29397   -9.08412
      H1    12.29321  -10.69214   -9.50109
       H    13.03039   -6.83402  -13.24062
       O    13.52542   -6.17815  -13.76391
      H1    14.38558   -6.39972  -13.46824
       H    11.54837   -8.31779  -13.94579
       O    11.57510   -8.08650  -13.02191
      H1    10.93376   -7.36247  -12.93932
       H     8.97868   -7.37057   -8.85245
       O     9.52567   -6.57538   -8.98184
      H1     8.77633   -5.90828   -9.08641
       H     7.81114   -8.19732   -7.03928
       O     8.64533   -8.64460   -6.88852
      H1     8.38492   -9.45785   -6.35620
       H     8.18316   -9.84309  -10.29912
       O     8.71072   -9.33455   -9.67091
      H1     8.47305   -9.77977   -8.83982
       H    10.49094   -7.98237   -6.81691
       O    11.41501   -8.07893   -6.51180
      H1    11.92805   -7.70699   -7.23747
       H    11.79296   -8.02140   -9.40606
       O    12.20862   -7.22370   -9.09225
      H1    13.11009   -7.37461   -9.34890
       H    10.45651  -12.97396  -11.86059
       O    11.20547  -12.66113  -11.34879
      H1    11.42525  -11.86576  -11.85590
       H    15.39251   -7.67460  -11.67351
       O    15.74187   -7.63897  -12.58136
      H1    16.52619   -7.07523  -12.52820
       H    10.55521   -5.65063   -7.81268
       O    10.86843   -4.79298   -7.54075
      H1    11.74647   -5.03302   -7.22916
       H     9.72023   -5.95059  -11.59701
       O    10.65726   -6.02546  -11.44502
      H1    10.60497   -6.29042  -10.52454
       H     9.77562   -5.34648   -6.30094
       O     9.24617   -5.54358   -5.50511
      H1     9.33213   -4.69458   -5.06400
       H    15.39913   -6.89247   -9.57293
       O    15.02076   -7.67934   -9.99012
      H1    15.25952   -8.43496   -9.44654
       H    14.46036   -5.07785   -7.85671
       O    13.77328   -5.25016   -7.19185
      H1    13.87829   -6.17223   -6.95320
       H    12.61599   -6.28892   -3.92347
       O    11.70357   -6.36455   -4.19233
      H1    11.72353   -6.85154   -5.04098
       H    14.33918   -8.18793   -5.62392
       O    14.58092   -7.88195   -6.53577
      H1    14.71302   -8.69486   -7.02980

