60
frame 1 | Written by MDAnalysis XYZWriter (release 2.4.3)
       H   -12.53051    4.41206  -13.31265
       O   -13.29131    3.98410  -12.88402
      H1   -12.95739    3.65861  -12.02828
       H   -12.77864    7.08459  -10.68853
       O   -12.11446    6.56384  -11.11463
      H1   -11.26300    7.03505  -11.07943
       H   -13.54558    0.44116   -8.09437
       O   -14.38391    0.45843   -8.55135
      H1   -14.43820    1.38297   -8.85506
       H   -14.74795    1.97897  -11.03179
       O   -15.51047    2.53277  -10.81202
      H1   -16.21225    2.13859  -11.32556
       H   -10.47096    0.81572  -10.51212
       O   -11.08759    0.68410  -11.24618
      H1   -11.78188    1.28369  -11.03547
       H   -16.43216    1.95920  -13.44393
       O   -17.08360    1.42287  -12.99247
      H1   -16.71335    0.54406  -13.27715
       H   -11.34382    3.76160  -10.59055
       O   -12.24405    3.41620  -10.51540
      H1   -12.74041    4.08741  -10.02147
       H   -15.58204    6.39162  -12.34744
       O   -16.15262    6.93761  -12.89433
      H1   -16.06405    7.79666  -12.46900
       H   -15.26711    2.53092  -15.71765
       O   -14.97267    2.54085  -14.76424
      H1   -15.12216    3.45269  -14.49322
       H   -10.90953    4.02331   -7.15400
       O   -10.44205    3.85540   -7.99123
      H1   -11.14139    3.57626   -8.58175
       H   -10.82066    5.33352  -15.25823
       O   -11.22977    5.18911  -14.39493
      H1   -11.59096    6.08008  -14.19647
       H    -9.46551    5.28192  -11.42256
       O    -9.48809    4.56937  -10.81214
      H1    -8.69522    4.10899  -11.08100
       H   -12.80433    7.69314  -14.05583
       O   -11.96015    7.63565  -13.61139
      H1   -12.17661    7.43016  -12.69744
       H   -13.08689    0.49668  -12.72244
       O   -13.68540    1.00921  -12.15019
      H1   -13.98612    1.65360  -12.79529
       H   -10.48228    0.20994  -13.14441
       O    -9.90911   -0.46214  -13.47577
      H1    -9.16942   -0.47301  -12.85753
       H   -14.48460    6.63425   -9.92706
       O   -14.29226    7.57217   -9.73703
      H1   -14.17061    7.60684   -8.76210
       H   -13.47336    1.70296  -15.07779
       O   -12.59670    1.35635  -15.25030
      H1   -11.98612    2.03407  -14.93514
       H   -14.24050    5.18954  -11.72585
       O   -14.99229    5.34920  -11.12924
      H1   -15.40043    4.46874  -11.14866
       H   -14.67388    3.98482   -8.44359
       O   -13.72503    4.04254   -8.22402
      H1   -13.75031    4.81211   -7.63031
       H   -10.10958    3.28660  -14.02811
       O   -10.03103    2.33810  -14.17464
      H1    -9.14033    2.20869  -14.51797

