60
frame 0 | Written by MDAnalysis XYZWriter (release 2.4.3)
       H    -1.53422    1.23458    7.99917
       O    -1.21551    1.48021    7.11875
      H1    -0.26022    1.41871    7.25996
       H    -4.91602   -3.30978    6.77170
       O    -5.23299   -4.06549    6.25818
      H1    -4.61764   -4.75128    6.50334
       H    -3.18897    0.93095    9.61048
       O    -2.96371    1.81453    9.31285
      H1    -3.06920    2.36439   10.11290
       H    -6.39967   -0.64320    9.06122
       O    -6.15511   -0.17128    9.86163
      H1    -6.21786   -0.84929   10.52780
       H    -3.76597   -2.52527   12.79516
       O    -3.11424   -1.88143   12.55357
      H1    -2.52071   -1.78882   13.31276
       H    -5.62218   -2.62697   12.69524
       O    -6.00141   -1.96502   12.10252
      H1    -6.82140   -2.34509   11.76767
       H    -8.59060   -2.63667   10.03693
       O    -8.60055   -2.53774   11.02040
      H1    -9.52742   -2.41755   11.23404
       H    -4.17370   -0.35603    5.06465
       O    -3.36940   -0.01659    5.46534
      H1    -3.70458    0.72673    5.98356
       H    -7.52303   -1.22146   13.30835
       O    -8.40724   -0.94533   13.57929
      H1    -8.25749   -0.53563   14.42636
       H    -3.32082   -3.73438   10.11992
       O    -2.51025   -4.12130    9.77167
      H1    -1.89492   -3.39314    9.61255
       H    -3.61135    1.80823   12.72682
       O    -3.49596    2.37657   11.98349
      H1    -4.03837    3.15186   12.21323
       H    -3.89735    2.23354    7.62833
       O    -4.44974    2.09100    6.86695
      H1    -5.28944    1.85690    7.30487
       H    -6.87889   -1.37448    6.09898
       O    -7.37303   -1.19646    6.93894
      H1    -7.90243   -2.01079    7.06156
       H    -4.57618   -0.40259   10.25951
       O    -3.69684   -0.78047   10.05963
      H1    -3.43486   -1.18550   10.89544
       H    -5.05836   -2.89466    8.85965
       O    -5.30819   -3.61473    9.42338
      H1    -5.76364   -4.24526    8.87822
       H    -8.87813   -0.19925   11.65180
       O    -8.63555    0.56430   11.07323
      H1    -7.72413    0.37444   10.75895
       H    -3.30018   -0.24069   13.45532
       O    -3.52408    0.45767   14.06854
      H1    -2.65787    0.78862   14.34689
       H    -4.61795   -4.85786   12.82552
       O    -4.79642   -4.06490   13.36783
      H1    -4.31374   -4.19603   14.20724
       H    -3.49005   -1.09058    6.95139
       O    -3.98441   -1.71793    7.53092
      H1    -3.72392   -1.48054    8.42705
       H    -7.99178    0.70008    7.62207
       O    -7.69349    1.58253    7.40254
      H1    -8.34539    2.20012    7.83382

