60
frame 0 | Written by MDAnalysis XYZWriter (release 2.4.3)
       H    12.32984    4.15225   -6.84247
       O    12.39432    4.86259   -7.48258
      H1    12.25350    5.66231   -6.91544
       H    15.07485    3.77793   -9.47430
       O    15.45258    4.46348  -10.00452
      H1    16.32135    4.51390   -9.63751
       H    12.10191    1.60243  -13.42165
       O    12.54649    2.40337  -13.15585
      H1    13.28112    2.13461  -12.62103
       H    14.88516    4.94566  -12.65664
       O    14.06872    5.41566  -12.77325
      H1    14.38331    6.31242  -12.95979
       H    17.15760    4.20297  -13.16852
       O    16.92806    5.08249  -12.85320
      H1    17.39145    5.21972  -12.03591
       H    15.06055    5.88960   -8.87925
       O    14.65504    6.27743   -8.08689
      H1    13.97829    5.63897   -7.84236
       H     9.47248    4.78656  -11.72665
       O     9.96251    4.03391  -11.43610
      H1    10.79824    4.38838  -11.09451
       H     8.53094    7.04061   -9.19087
       O     9.37363    6.67841   -9.31073
      H1     9.37641    6.09586   -8.51649
       H    12.90030    5.58463  -11.28997
       O    12.07409    5.52921  -10.80673
      H1    11.98043    6.44001  -10.50577
       H    10.35134    4.39435  -13.19575
       O    10.77452    4.92471  -13.89690
      H1    11.49471    4.32571  -14.16572
       H    11.10690    6.71319  -14.53578
       O    10.98376    7.53739  -15.05229
      H1    10.54163    8.19795  -14.48307
       H    13.31201    8.82270  -13.00499
       O    13.95329    8.15674  -12.75286
      H1    14.53043    8.54043  -12.04792
       H     8.69235    6.54355  -11.05619
       O     8.09950    6.55237  -11.81964
      H1     7.39220    5.91052  -11.56963
       H    13.87392    8.94213   -6.85661
       O    13.77242    8.80572   -7.83022
      H1    14.00666    7.86669   -7.90805
       H    15.68200    9.59611  -14.81945
       O    16.05849    8.81920  -14.38748
      H1    15.33990    8.50383  -13.82004
       H    16.48380    7.77805  -11.16215
       O    16.10454    8.66378  -11.34042
      H1    15.94814    9.03139  -10.44062
       H    11.88797   10.90348  -11.00436
       O    11.10409   10.34303  -11.02812
      H1    11.39408    9.57387  -10.49848
       H    12.36331    3.53819   -9.81663
       O    12.17268    2.62152   -9.58103
      H1    11.86126    2.68988   -8.68341
       H    10.67459    8.01091   -8.76116
       O    11.40656    8.44678   -9.22480
      H1    12.14603    8.21763   -8.68068
       H    13.46142    4.69406  -14.19471
       O    13.17987    4.46534  -15.12919
      H1    13.12157    3.49260  -15.05501

