60
frame 0 | Written by MDAnalysis XYZWriter (release 2.4.3)
       H     7.55854   -7.18952  -11.31105
       O     7.94025   -6.63461  -11.99255
      H1     7.25296   -6.01541  -12.25609
       H    10.82677   -4.02009  -11.58862
       O    10.79480   -3.06358  -11.55104
      H1    10.85296   -2.92885  -10.59943
       H     5.71582   -7.79747   -8.23510
       O     6.50787   -7.37726   -7.84047
      H1     6.12037   -6.86629   -7.08806
       H     4.60338   -8.03920  -11.64626
       O     5.14339   -8.08224  -10.84864
      H1     5.09593   -9.01210  -10.61426
       H     3.69528   -8.23188   -7.28310
       O     3.89126   -7.92837   -8.18738
      H1     3.80468   -6.97017   -8.16290
       H     4.95568   -6.46673  -10.59952
       O     4.76771   -5.49940  -10.72253
      H1     4.55904   -5.16725   -9.81703
       H     6.36515   -2.34936  -12.48103
       O     6.35254   -1.54123  -11.96473
      H1     5.64756   -1.69353  -11.32974
       H     8.97868   -7.37057   -8.85245
       O     9.52567   -6.57538   -8.98184
      H1     8.77633   -5.90828   -9.08641
       H     4.52314   -4.34866   -7.58836
       O     3.90791   -4.86832   -8.12371
      H1     3.28559   -5.15184   -7.46214
       H     7.81114   -8.19732   -7.03928
       O     8.64533   -8.64460   -6.88852
      H1     8.38492   -9.45785   -6.35620
       H     6.57700   -5.73744   -8.99140
       O     7.17278   -5.02090   -9.18573
      H1     6.82005   -4.79543  -10.07407
       H     6.81473   -3.65994   -7.67541
       O     6.07141   -3.48869   -7.07334
      H1     6.11620   -4.10333   -6.31272
       H     5.92201   -0.22366   -7.17660
       O     5.24280   -0.90240   -7.30270
      H1     5.75829   -1.69855   -7.41227
       H     7.35794   -5.74835   -5.57559
       O     6.39682   -5.79919   -5.58868
      H1     6.17740   -6.01144   -4.66995
       H     8.14412   -1.13692   -8.69799
       O     8.37039   -1.54502   -7.83409
      H1     8.32020   -0.82993   -7.19511
       H    10.55521   -5.65063   -7.81268
       O    10.86843   -4.79298   -7.54075
      H1    11.74647   -5.03302   -7.22916
       H     9.72023   -5.95059  -11.59701
       O    10.65726   -6.02546  -11.44502
      H1    10.60497   -6.29042  -10.52454
       H     9.99591   -1.93723   -8.58866
       O    10.71275   -2.43607   -8.97539
      H1    10.73172   -3.21272   -8.42313
       H     9.77562   -5.34648   -6.30094
       O     9.24617   -5.54358   -5.50511
      H1     9.33213   -4.69458   -5.06400
       H     6.29820   -4.67260  -13.71649
       O     6.38133   -4.40689  -12.76199
      H1     5.51079   -4.64865  -12.45254

