60
frame 0 | Written by MDAnalysis XYZWriter (release 2.4.3)
       H     4.82159    9.12151    5.49498
       O     4.25352    8.68891    4.83197
      H1     3.85670    7.95207    5.32158
       H    -1.13753   12.49187    6.49048
       O    -0.68824   11.61628    6.55283
      H1     0.19501   11.90005    6.29809
       H     2.29148   13.32702    5.45667
       O     1.81446   12.50973    5.52250
      H1     2.03166   12.16430    6.40984
       H    -1.31997    7.54466    6.35966
       O    -0.39107    7.50731    6.08905
      H1    -0.40143    8.06721    5.30346
       H     2.39152    7.34246    7.35106
       O     2.76853    8.18046    7.70293
      H1     3.49209    7.75622    8.21055
       H     3.46602    5.99745    3.62815
       O     3.39792    6.06662    4.58545
      H1     2.52690    5.69658    4.80342
       H     2.17442    8.15250    2.54433
       O     2.37712    9.05986    2.77518
      H1     2.98029    8.98683    3.53960
       H     1.34027    8.76935    0.31380
       O     1.87421    8.29571   -0.34209
      H1     1.66213    7.33268   -0.24632
       H    -1.07776   12.13570    2.62758
       O    -1.55362   11.49777    3.14639
      H1    -0.82431   10.90383    3.39958
       H    -2.18081   13.18858    3.84206
       O    -2.65225   14.01720    3.86923
      H1    -2.88533   14.22276    2.94626
       H     0.28095   10.93177    0.77548
       O     0.06273    9.98376    0.68966
      H1    -0.05792    9.95949   -0.24770
       H    -2.36841    7.08765    2.64801
       O    -2.32936    7.40833    3.51910
      H1    -2.51912    8.34771    3.45531
       H     2.36433   11.45727    2.10394
       O     1.72547   12.03408    2.61495
      H1     1.93327   11.80868    3.53034
       H     0.98037    9.47621    3.57050
       O     0.23433    9.66120    4.17498
      H1     0.56852   10.25363    4.79984
       H     0.84537    6.32054    6.67357
       O     1.66206    5.82390    6.81760
      H1     1.50161    5.40457    7.67263
       H    -3.02929   10.15556    1.66643
       O    -2.50602    9.37246    1.44387
      H1    -1.64318    9.76139    1.19074
       H    -3.22252   11.40030    2.78010
       O    -4.02125   11.56202    2.23932
      H1    -4.70652   11.36995    2.86908
       H     0.10324    7.59901    2.10093
       O     0.78766    6.92636    2.23085
      H1     0.58752    6.47188    3.02071
       H     2.63255   10.00777    7.66902
       O     2.65505   10.96555    7.57920
      H1     3.58014   11.16339    7.35754
       H     2.86558    9.76801    0.82694
       O     3.17596   10.68819    0.63872
      H1     2.75897   10.91676   -0.19352

