60
frame 0 | Written by MDAnalysis XYZWriter (release 2.4.3)
       H    -7.43611   14.73585  -10.39105
       O    -6.51095   14.72331  -10.66990
      H1    -6.11188   15.13221   -9.86661
       H    -7.28984    8.65087   -9.26344
       O    -6.43466    8.59360   -8.78958
      H1    -6.53354    7.77657   -8.27262
       H    -3.94794    6.87945  -12.40005
       O    -4.39521    7.67874  -12.63416
      H1    -4.11987    8.26572  -11.91248
       H    -7.73017   10.52188  -12.70061
       O    -7.69271    9.96646  -13.46529
      H1    -7.85076   10.60520  -14.17813
       H    -5.64704   11.96706   -9.30249
       O    -6.26218   12.30535   -8.62442
      H1    -5.70427   12.95431   -8.15352
       H    -8.40260   11.23493  -11.04096
       O    -7.64186   11.69744  -11.43631
      H1    -7.99567   12.55741  -11.71698
       H    -5.77010   12.42756  -10.91517
       O    -4.81307   12.31364  -10.96577
      H1    -4.67128   11.35622  -10.89666
       H    -6.56803   15.38365  -12.40688
       O    -7.02887   15.45494  -13.28311
      H1    -7.26343   16.41035  -13.36490
       H    -0.93329   12.70872  -12.36607
       O    -1.23767   12.33344  -13.17187
      H1    -1.49449   13.07428  -13.78525
       H    -4.38624   13.91644   -5.80873
       O    -5.11815   13.66767   -6.38503
      H1    -5.88605   13.60757   -5.79532
       H    -1.17279   11.19980   -9.86491
       O    -1.91913   10.73235   -9.39958
      H1    -1.65660   10.90444   -8.47561
       H     0.24650   13.36094  -10.71527
       O     0.22302   12.42995  -10.80905
      H1     1.16194   12.26528  -10.76666
       H    -5.85544   10.92716  -13.48506
       O    -5.23371   11.59377  -13.80407
      H1    -5.19040   12.21028  -13.05173
       H    -2.27431   10.94006  -12.94514
       O    -2.79404   10.28522  -13.38825
      H1    -3.70041   10.64255  -13.47677
       H    -2.39260   14.02931   -9.18943
       O    -3.04187   14.27813   -9.88440
      H1    -3.19724   13.42010  -10.30527
       H    -5.30235   15.70005  -14.67837
       O    -4.69192   15.94052  -15.39597
      H1    -4.09771   16.59707  -15.02089
       H    -3.06506   16.54943  -11.52100
       O    -3.02358   15.87564  -12.21828
      H1    -2.96505   15.04284  -11.72819
       H    -3.75497    9.96539   -9.93663
       O    -4.49338    9.62226  -10.40415
      H1    -5.03824    9.13736   -9.79199
       H    -4.29512   15.35430   -8.99853
       O    -4.90808   15.65770   -8.32219
      H1    -4.98204   14.87783   -7.75089
       H    -7.14715   11.24669   -7.53734
       O    -7.62975   10.70918   -6.89951
      H1    -7.16176   10.90879   -6.08232

