60
frame 1 | Written by MDAnalysis XYZWriter (release 2.4.3)
       H     9.02234    9.33590    3.19091
       O     8.76539   10.09337    3.72333
      H1     9.29469    9.98981    4.51906
       H     5.25594    9.57168   -1.87856
       O     4.67928    8.81065   -1.93081
      H1     5.21464    8.04712   -1.66752
       H     4.99608   13.32874    0.52599
       O     4.06683   13.56679    0.65263
      H1     3.65887   13.11134   -0.07330
       H     6.65474   10.88850   -1.69831
       O     6.53310   10.61136   -2.61315
      H1     7.30605   10.04796   -2.77835
       H     7.08390   10.62359    4.42214
       O     6.27757   11.07908    4.70463
      H1     5.58589   10.67985    4.15482
       H     7.92578   12.98880    2.38909
       O     8.73629   12.76865    2.88905
      H1     8.71561   11.80162    2.97759
       H    10.30645   13.61484   -2.76997
       O     9.69722   12.96096   -2.47572
      H1     9.03884   13.48163   -1.99936
       H     1.97743   12.95092   -2.07508
       O     2.71289   12.56929   -1.55683
      H1     3.46244   12.78414   -2.08954
       H     6.26126    8.04514    0.16699
       O     6.40911    7.32001   -0.45033
      H1     7.33674    7.23572   -0.58664
       H     7.35971   14.28159    0.32555
       O     6.90247   13.96010    1.12534
      H1     6.80696   14.77074    1.62490
       H     5.09192   13.92882   -3.92706
       O     4.80020   13.17680   -3.39825
      H1     4.53193   12.53218   -4.07499
       H     8.22308   15.27112   -1.07806
       O     7.85256   14.43040   -1.39589
      H1     6.92749   14.61891   -1.68617
       H     4.37553   15.43147    0.78792
       O     4.85369   16.20520    0.48481
      H1     4.16585   16.87453    0.36532
       H     2.94307   13.02683    2.26336
       O     2.83543   13.15224    3.22746
      H1     2.84693   12.27157    3.60619
       H     6.62478    8.26166    2.69526
       O     6.45949    8.89835    1.99243
      H1     5.57022    9.24402    2.17637
       H     8.25587   12.36186   -4.30757
       O     7.42723   12.02851   -4.66833
      H1     6.98858   11.59567   -3.91394
       H     9.86358   12.41541    1.32285
       O    10.36503   12.41965    0.48688
      H1    10.44295   13.35069    0.29202
       H     6.54060   10.48783    0.69914
       O     6.25393   11.24969    0.17939
      H1     6.76664   12.01627    0.47997
       H     8.79199    9.42014   -3.99997
       O     8.98276    9.55465   -3.06039
      H1     9.22152   10.48688   -2.96156
       H     3.39580    9.89489    1.84266
       O     4.14185   10.24603    2.33367
      H1     4.49814   10.92679    1.77973

