60
frame 1 | Written by MDAnalysis XYZWriter (release 2.4.3)
       H    17.17927    5.33062   11.48151
       O    16.43034    5.94057   11.73759
      H1    15.78859    5.21944   12.04148
       H    15.13326    3.05972    8.49866
       O    16.08317    3.18883    8.73087
      H1    16.08059    4.09576    9.11422
       H    18.63507   10.84875   11.84523
       O    18.94421   10.68208   12.81854
      H1    19.18166    9.72537   12.84966
       H    11.89355    9.41780   13.46118
       O    11.91938    9.74573   12.56162
      H1    12.05810    8.89648   12.09204
       H    13.42956   11.10468    8.26544
       O    12.54579   10.81777    8.60760
      H1    12.27748   11.59140    9.16627
       H    15.05728    9.47303    8.89911
       O    15.11556    8.91959    9.67534
      H1    14.26227    8.41312    9.52843
       H    14.68205    9.62748   11.46869
       O    14.47331   10.13094   12.23984
      H1    13.51737   10.00233   12.37712
       H    12.90575    6.74746    7.02496
       O    12.77115    7.03774    6.08685
      H1    11.81697    7.00423    5.98375
       H    18.85069    9.32385    6.19226
       O    18.95399    8.47076    6.63869
      H1    18.05073    8.20496    6.94429
       H    15.66936   13.64100    9.12618
       O    16.06812   14.48028    8.77631
      H1    16.06395   15.14131    9.51698
       H    15.68084    7.15424    7.85536
       O    16.22730    7.53405    7.10295
      H1    15.69590    7.95087    6.44470
       H    17.87296   10.78184    8.64031
       O    17.90076   11.53513    8.04488
      H1    18.13725   11.18262    7.20042
       H    17.27085   10.57291   13.69088
       O    16.37036   10.66921   14.08584
      H1    15.71518   10.25200   13.50348
       H    11.78066    6.71711   11.80764
       O    11.53519    7.09641   10.94322
      H1    10.66556    6.75794   10.73232
       H    16.16863   11.03781    7.84220
       O    15.28484   10.81236    7.68849
      H1    15.20930   10.77541    6.69092
       H    12.54921    6.21075    9.61792
       O    12.90756    5.96713    8.73939
      H1    12.38644    5.31063    8.23709
       H    18.36017    9.30169    9.97399
       O    17.62739    9.89510   10.18465
      H1    16.84016    9.33484    9.97586
       H    16.12659    8.36099   13.84352
       O    16.32752    7.43561   14.06564
      H1    16.50486    7.01270   13.20360
       H    13.34423   13.01451   10.69954
       O    14.22201   13.02779   11.06971
      H1    14.39683   12.16349   11.39166
       H    14.45960    5.67402    9.30845
       O    15.41798    5.92059    9.33493
      H1    15.71830    5.98030   10.27276

