60
frame 0 | Written by MDAnalysis XYZWriter (release 2.4.3)
       H   -14.14473   14.60375  -16.75958
       O   -15.02183   15.01060  -16.79755
      H1   -15.58484   14.32628  -16.45067
       H    -9.57267   13.47798  -13.91021
       O    -9.48017   14.41593  -14.12879
      H1    -8.57260   14.61283  -13.80047
       H   -10.91357    9.73583  -14.88353
       O   -11.12299    9.49808  -13.97322
      H1   -10.50973    8.75593  -13.84027
       H   -14.00967   14.45644  -18.51653
       O   -13.74475   15.00213  -19.28432
      H1   -12.92839   15.43191  -18.94487
       H   -12.78620   15.74949  -16.13489
       O   -12.37363   15.05900  -16.71006
      H1   -11.65657   15.60149  -17.10042
       H   -11.73428   12.04333  -18.22599
       O   -11.08825   12.10193  -17.50981
      H1   -10.82375   11.17659  -17.36427
       H   -15.25678   13.66501  -14.23954
       O   -14.39635   13.94283  -13.90802
      H1   -14.43601   14.88662  -13.85319
       H   -16.98393   15.38371  -11.80751
       O   -17.15508   14.81410  -12.58989
      H1   -17.02119   13.87899  -12.32603
       H   -14.45210    9.34005  -16.34874
       O   -14.95120    8.65655  -16.84351
      H1   -15.83047    8.57331  -16.42025
       H   -12.56995   14.02724  -11.64502
       O   -13.42969   13.84533  -11.24344
      H1   -13.98829   13.84975  -12.03060
       H   -12.67807    9.80912  -15.09156
       O   -12.82155   10.29252  -15.92977
      H1   -12.45053   11.19284  -15.74520
       H    -9.06110   14.12913  -17.41166
       O    -9.32392   14.94199  -16.97396
      H1    -9.28195   14.73381  -16.02950
       H   -17.97840   12.81099  -15.94187
       O   -17.01316   12.80945  -15.73819
      H1   -16.89270   11.95131  -15.32576
       H   -16.53966   11.72322  -18.67289
       O   -15.76880   12.07048  -18.19315
      H1   -16.17199   12.29910  -17.35666
       H   -13.17614   13.13629  -14.75633
       O   -12.32030   12.85830  -15.12679
      H1   -12.13512   13.58370  -15.71189
       H   -13.89322   10.72776   -9.90060
       O   -13.72542   10.95131  -10.81869
      H1   -12.83118   11.37986  -10.76914
       H   -12.56012   17.55138  -15.59621
       O   -13.25291   17.05895  -15.10757
      H1   -14.02919   17.47442  -15.45759
       H   -16.21985    9.81929  -13.65737
       O   -16.70975   10.35133  -14.35932
      H1   -17.40382    9.75006  -14.64217
       H   -11.18392   16.05727  -12.01460
       O   -11.44106   15.12881  -12.13685
      H1   -10.98858   14.88638  -12.93225
       H   -10.84257   11.03292  -13.00338
       O   -10.79212   12.02333  -12.96994
      H1   -11.48253   12.24028  -13.59523

