60
frame 1 | Written by MDAnalysis XYZWriter (release 2.4.3)
       H    -5.15102   -4.50407    5.32393
       O    -5.90737   -4.37492    4.75238
      H1    -6.24962   -5.22404    4.47789
       H    -4.21157   -6.36323    2.21823
       O    -3.91630   -5.69526    1.59337
      H1    -3.98802   -4.91040    2.12977
       H    -0.76840   -4.57502    6.63792
       O    -0.78093   -5.04000    7.45819
      H1     0.11947   -5.34847    7.60340
       H    -1.91842    0.54367    1.80440
       O    -1.94400    1.09286    2.57193
      H1    -2.52534    0.55765    3.13930
       H    -0.79701   -6.39243    3.67599
       O    -1.51886   -6.87132    4.12781
      H1    -1.55372   -7.70017    3.64782
       H     0.04001   -5.06078    1.75061
       O     0.05942   -5.45833    2.62661
      H1     0.96198   -5.32507    2.96733
       H    -8.07719   -4.52080    2.31406
       O    -7.42875   -3.82828    2.09120
      H1    -7.31504   -3.38364    2.93840
       H    -3.85100   -1.32493    3.37465
       O    -3.91500   -0.55525    3.96339
      H1    -3.86839   -0.97557    4.85321
       H    -1.56032   -6.70171    7.22548
       O    -2.14512   -7.37574    6.83081
      H1    -2.03029   -7.16285    5.91442
       H    -3.36354   -6.75291    4.14014
       O    -4.32006   -6.78301    4.28677
      H1    -4.44353   -7.30256    5.10018
       H    -3.42531   -5.09884    6.83028
       O    -3.79821   -4.23038    7.02742
      H1    -4.34576   -4.43183    7.80208
       H    -6.85567   -2.29145    6.08692
       O    -6.74482   -2.18927    7.04172
      H1    -7.59452   -2.35353    7.43418
       H    -0.01317   -0.65995    4.12145
       O     0.21956   -1.42835    3.54524
      H1     1.06068   -1.75270    3.87947
       H    -5.84482   -2.41841    0.08581
       O    -6.12477   -3.12342   -0.52580
      H1    -6.49664   -3.81783    0.04418
       H    -6.18557   -1.18987    1.98028
       O    -5.40749   -1.52158    1.49053
      H1    -5.13347   -2.34033    1.94182
       H    -1.83862   -1.69441    0.68984
       O    -1.67792   -0.79892    0.38537
      H1    -2.60791   -0.45117    0.30247
       H    -0.99224   -2.46821    4.50024
       O    -1.49428   -3.28757    4.40708
      H1    -1.03683   -3.84153    3.78161
       H    -2.57734   -3.51141    1.58993
       O    -2.12136   -3.48949    0.76625
      H1    -2.73849   -4.05718    0.20994
       H    -4.72625   -3.86521    3.65579
       O    -4.04538   -3.48442    3.08126
      H1    -3.29546   -3.41243    3.71825
       H    -3.41108   -2.46767    6.53101
       O    -3.35745   -1.51247    6.36423
      H1    -2.43138   -1.40466    6.30641

