60
frame 1 | Written by MDAnalysis XYZWriter (release 2.4.3)
       H    11.80554  -14.52886   -2.09716
       O    11.00721  -14.26188   -2.56362
      H1    11.31200  -13.91770   -3.39381
       H     3.55879  -13.15561    1.52762
       O     3.99047  -12.68532    0.79943
      H1     4.70909  -12.22953    1.24535
       H     9.61854  -11.53169   -3.20253
       O    10.12495  -11.19637   -2.44242
      H1    10.70445  -11.90141   -2.22880
       H     7.31841  -15.16207   -0.74279
       O     7.24341  -15.96440   -1.24843
      H1     8.08069  -16.09468   -1.71596
       H     4.32988  -14.45129   -4.04435
       O     3.68382  -15.16054   -3.92327
      H1     3.36087  -15.04700   -3.01841
       H    10.72355  -13.04440    1.13973
       O    10.95715  -12.28931    0.58997
      H1    10.48348  -11.57255    1.04813
       H     7.23101  -12.00872   -1.81021
       O     6.53827  -11.40195   -2.08413
      H1     5.75446  -11.95045   -2.13276
       H     6.11595  -13.66282    0.74686
       O     6.31966  -14.46613    1.18380
      H1     5.68322  -15.06874    0.79201
       H    11.55655  -12.59586   -5.07424
       O    11.88650  -12.31435   -4.21248
      H1    11.18176  -11.70063   -3.89635
       H     7.33853   -8.32065   -3.12853
       O     7.43937   -7.53084   -2.57743
      H1     8.31595   -7.18419   -2.84346
       H     4.14728  -12.39706   -1.07355
       O     4.11195  -12.54195   -2.03297
      H1     3.80085  -11.73522   -2.44112
       H     6.60935  -10.34623   -3.99033
       O     6.49214   -9.40820   -4.28854
      H1     6.77757   -9.44645   -5.19365
       H     8.47735  -14.44022   -2.94520
       O     8.21382  -14.45096   -3.84749
      H1     8.39755  -15.36707   -4.12792
       H     8.18238   -8.94503   -1.27389
       O     8.86094   -9.40984   -0.77649
      H1     9.07658  -10.14398   -1.34840
       H     8.46138  -10.50423    2.07903
       O     9.34674  -10.18197    1.84294
      H1     9.12287   -9.73755    1.03824
       H     8.43989  -13.29039    0.18176
       O     8.65082  -13.47588   -0.77920
      H1     9.62684  -13.41908   -0.77190
       H     8.43162  -12.79780   -4.48914
       O     8.55168  -11.83194   -4.61207
      H1     8.61486  -11.62607   -5.52632
       H     5.70940  -11.73366   -6.00973
       O     4.91261  -11.17826   -6.05716
      H1     5.17739  -10.28581   -5.76453
       H     6.45219  -14.32559   -5.83982
       O     5.93800  -13.74833   -5.24571
      H1     6.50284  -13.67473   -4.48716
       H     6.83188  -11.49912   -0.33601
       O     6.74510  -11.72722    0.56989
      H1     6.56731  -10.89517    1.05465

