60
frame 0 | Written by MDAnalysis XYZWriter (release 2.4.3)
       H    16.04260   13.55385    7.86866
       O    16.18046   12.61082    7.68055
      H1    17.12796   12.46566    7.79617
       H    19.35358    8.15885    9.34319
       O    18.89370    8.74405    8.73428
      H1    18.55891    8.07846    8.07181
       H    17.39581   14.19436    5.01182
       O    16.86131   13.33792    5.00108
      H1    16.53868   13.18415    5.89953
       H    11.65989    6.83937    6.46386
       O    11.34905    6.92447    7.38565
      H1    11.69260    6.10546    7.78205
       H    18.74031    5.80086    6.76567
       O    18.30125    6.64148    6.98664
      H1    17.43914    6.57148    6.56110
       H    17.60023    5.93392    8.49472
       O    17.05323    5.28056    8.98729
      H1    16.35232    5.86272    9.36364
       H    13.18053   11.99593    5.54487
       O    12.90204   12.49612    4.76768
      H1    12.09650   12.03165    4.50255
       H    14.34843    7.03993    9.67485
       O    15.25567    7.34172    9.57083
      H1    15.65419    7.15794   10.42686
       H    15.05741    9.89532   11.38219
       O    14.22358    9.98254   11.86586
      H1    13.94194    9.10879   12.14821
       H    11.91781    8.91463    7.15377
       O    12.08871    9.52604    7.85961
      H1    12.44543    8.97021    8.53865
       H    13.46704    6.42495    4.71905
       O    12.53368    6.53086    4.72518
      H1    12.36031    7.04359    3.89365
       H    18.28055   11.55410    9.57687
       O    18.42575   11.66814    8.62371
      H1    18.64389   10.81781    8.26748
       H    15.19677    5.02271    5.62457
       O    15.26397    5.89936    5.20130
      H1    15.24185    6.53114    5.93176
       H    13.14518    8.97980    3.59373
       O    12.30657    8.80432    3.09819
      H1    11.74764    9.58071    3.32197
       H    13.57764   10.50576    7.27749
       O    14.21341   10.93918    6.66401
      H1    14.61531   11.57318    7.24841
       H    15.15360    8.04113    2.22078
       O    15.46694    7.21087    2.66962
      H1    15.30094    7.37924    3.59845
       H    15.66437    7.85004    7.98435
       O    15.83990    8.18168    7.09626
      H1    15.52973    9.09650    7.16576
       H    16.76597   10.09162    9.89731
       O    16.40993   10.79445   10.42419
      H1    16.16906   11.45284    9.77240
       H    15.76141   12.44108    3.71429
       O    15.24950   11.85691    3.15664
      H1    14.36712   11.91251    3.55853
       H    14.47409   10.12977    5.32327
       O    14.73290    9.63626    4.53474
      H1    15.11458   10.35772    3.99536

