60
frame 0 | Written by MDAnalysis XYZWriter (release 2.4.3)
       H     4.82159    9.12151    5.49498
       O     4.25352    8.68891    4.83197
      H1     3.85670    7.95207    5.32158
       H     0.64000    4.14360    4.01709
       O     0.55195    4.99032    4.47554
      H1     0.72141    4.79800    5.41182
       H    -1.54113    4.40021    4.84241
       O    -2.47418    4.66241    4.89251
      H1    -2.40252    5.60084    4.67361
       H    -1.13753   12.49187    6.49048
       O    -0.68824   11.61628    6.55283
      H1     0.19501   11.90005    6.29809
       H     0.90767    8.25745    8.67021
       O     0.51712    8.09375    9.53385
      H1     1.03910    8.65909   10.13079
       H    -1.31997    7.54466    6.35966
       O    -0.39107    7.50731    6.08905
      H1    -0.40143    8.06721    5.30346
       H     2.39152    7.34246    7.35106
       O     2.76853    8.18046    7.70293
      H1     3.49209    7.75622    8.21055
       H    -1.24714    8.63671    9.77118
       O    -2.14473    8.55338   10.10435
      H1    -2.12466    9.13426   10.85125
       H     3.46602    5.99745    3.62815
       O     3.39792    6.06662    4.58545
      H1     2.52690    5.69658    4.80342
       H     2.17442    8.15250    2.54433
       O     2.37712    9.05986    2.77518
      H1     2.98029    8.98683    3.53960
       H    -2.02340    4.75882    6.59185
       O    -2.14609    4.30747    7.44641
      H1    -1.74239    3.44501    7.29498
       H    -1.07776   12.13570    2.62758
       O    -1.55362   11.49777    3.14639
      H1    -0.82431   10.90383    3.39958
       H    -3.27461    6.18852    7.65490
       O    -2.76391    6.98655    7.50969
      H1    -2.74530    7.52418    8.30106
       H    -5.62213    7.69330    3.33119
       O    -5.25333    7.01348    3.87702
      H1    -4.31043    7.04445    3.65918
       H    -2.36841    7.08765    2.64801
       O    -2.32936    7.40833    3.51910
      H1    -2.51912    8.34771    3.45531
       H     0.98037    9.47621    3.57050
       O     0.23433    9.66120    4.17498
      H1     0.56852   10.25363    4.79984
       H     0.84537    6.32054    6.67357
       O     1.66206    5.82390    6.81760
      H1     1.50161    5.40457    7.67263
       H    -3.02929   10.15556    1.66643
       O    -2.50602    9.37246    1.44387
      H1    -1.64318    9.76139    1.19074
       H     0.10324    7.59901    2.10093
       O     0.78766    6.92636    2.23085
      H1     0.58752    6.47188    3.02071
       H     2.63255   10.00777    7.66902
       O     2.65505   10.96555    7.57920
      H1     3.58014   11.16339    7.35754

