60
frame 1 | Written by MDAnalysis XYZWriter (release 2.4.3)
       H    12.04385    5.35283    2.11397
       O    11.64490    4.44613    2.19668
      H1    11.74224    4.23343    3.13012
       H    12.22069    3.35977    4.98774
       O    11.45058    3.94402    4.87130
      H1    11.66364    4.73707    5.36720
       H    14.31053    1.30206    3.42600
       O    14.80999    0.76844    2.81903
      H1    14.21603    0.05853    2.51249
       H    14.44766    5.58570    7.51460
       O    13.84125    6.02654    8.11850
      H1    13.44094    5.31677    8.65719
       H    15.97968    1.90731    7.16543
       O    16.77903    2.37443    6.92048
      H1    17.04399    2.91945    7.65817
       H    11.82640    1.17457    9.84115
       O    11.78739    1.55812    8.95096
      H1    12.65158    1.40208    8.55573
       H    12.52905    0.68479    4.57395
       O    11.73972    0.80921    4.01948
      H1    11.10042    1.33335    4.51719
       H    19.51874    0.97600    5.91604
       O    19.09106    1.83758    5.99063
      H1    18.19970    1.60008    6.28629
       H    13.99561    6.28344    2.10913
       O    14.60464    5.53473    2.08356
      H1    14.93236    5.62997    1.17028
       H    11.98209    7.77420    5.36488
       O    11.68640    6.88014    5.35288
      H1    10.72096    6.95380    5.26131
       H    18.13547    2.99582    1.12633
       O    17.87133    3.29590    1.98681
      H1    16.89853    3.34308    1.88477
       H    14.30957    0.28286    7.48403
       O    14.33922    1.07774    8.01806
      H1    14.82321    0.76643    8.79675
       H    13.43294    3.23094    9.20272
       O    13.20577    3.97914    9.78970
      H1    12.44458    3.64382   10.29857
       H    16.09079    4.06153    6.40840
       O    15.45477    4.76004    6.24838
      H1    15.91146    5.27504    5.59854
       H    13.17126   -0.58970    6.04659
       O    13.89946   -0.08303    5.66076
      H1    14.50506   -0.66184    5.16108
       H    17.62514    1.56787    2.16488
       O    17.52044    0.59455    2.22336
      H1    16.67406    0.51492    2.66716
       H    15.79384    6.09604    3.44018
       O    16.57096    6.53053    3.83993
      H1    16.33042    7.43998    3.96486
       H    14.35723    3.37950    5.26958
       O    13.79639    2.68831    4.82932
      H1    13.90993    1.96069    5.43496
       H    11.57546    1.37177    2.31884
       O    11.57124    1.49654    1.36119
      H1    12.28652    2.10383    1.22078
       H    10.04903    2.87548    5.63937
       O     9.34588    2.36621    5.23678
      H1     9.42028    1.49690    5.73656

