60
frame 0 | Written by MDAnalysis XYZWriter (release 2.4.3)
       H    -3.81661   -6.45110    3.58240
       O    -3.87213   -6.33341    2.63143
      H1    -4.06634   -5.39975    2.58077
       H    -7.14357   -0.28630   -2.71923
       O    -6.68792   -0.86656   -3.32680
      H1    -7.09868   -1.71958   -3.17676
       H    -4.88677   -2.84841   -0.58104
       O    -4.24997   -2.36511   -1.09549
      H1    -4.61688   -2.36019   -2.00226
       H    -7.74415   -2.26411    2.77926
       O    -8.17869   -2.52047    1.94476
      H1    -8.64194   -1.71773    1.73453
       H    -7.35871   -8.12286   -1.33586
       O    -7.53318   -7.76156   -0.46100
      H1    -7.34951   -6.81144   -0.53868
       H    -8.08581   -3.88634   -3.39334
       O    -7.93085   -3.36024   -2.59790
      H1    -7.66564   -4.08403   -2.01558
       H    -1.70575   -2.07075   -2.15195
       O    -1.61582   -1.15682   -2.43675
      H1    -1.12672   -0.75469   -1.73571
       H    -9.41064   -2.99932   -1.97505
       O   -10.23470   -2.55283   -1.64043
      H1   -10.95481   -3.02340   -2.09759
       H    -2.67175   -3.05548   -0.74131
       O    -1.76247   -3.40884   -0.52729
      H1    -1.93486   -4.25148   -0.08337
       H    -4.39697   -6.47129   -1.74043
       O    -4.38701   -6.14834   -0.81500
      H1    -4.49741   -6.95920   -0.33287
       H    -5.22338   -3.48052   -3.89524
       O    -4.61454   -2.82645   -3.56742
      H1    -4.15516   -2.52404   -4.36451
       H    -7.55596   -4.84764   -0.05333
       O    -6.95329   -5.05094   -0.80249
      H1    -6.05921   -5.03337   -0.44557
       H    -6.37472   -3.33383    1.28234
       O    -5.49312   -3.73179    1.18817
      H1    -5.05780   -3.41425    2.01501
       H    -0.85334   -0.54807    1.88527
       O    -1.20110    0.30736    1.68410
      H1    -2.02037    0.16540    1.19381
       H    -3.35147   -0.26075   -2.57625
       O    -4.19347    0.17057   -2.40556
      H1    -4.81448   -0.42536   -2.82060
       H    -0.46311   -2.72468    2.76401
       O    -0.33633   -2.29253    1.92543
      H1    -0.87954   -2.78006    1.28295
       H    -3.84422   -0.41921   -0.47468
       O    -3.64001   -0.08767    0.43068
      H1    -4.49127    0.02565    0.89433
       H    -2.37539   -5.82480    1.29919
       O    -1.58140   -5.95629    0.77359
      H1    -0.90193   -6.16634    1.42005
       H     0.33074   -3.55515   -2.64031
       O    -0.17081   -4.35762   -2.43186
      H1    -0.73203   -4.12240   -1.65794
       H    -4.42843   -3.92463    4.31414
       O    -3.98793   -3.63101    3.51009
      H1    -3.08986   -3.40554    3.82333

