60
frame 1 | Written by MDAnalysis XYZWriter (release 2.4.3)
       H    -8.54105    0.04084    9.66084
       O    -9.29989   -0.45041    9.35884
      H1   -10.08213    0.03329    9.76712
       H    -3.38917   -1.02142   11.69911
       O    -3.21132   -0.55759   10.87416
      H1    -3.87434    0.13588   10.76837
       H    -4.44043   -2.08628   13.99108
       O    -4.36774   -1.27119   13.48126
      H1    -5.30298   -1.10103   13.28938
       H    -7.28861   -2.03390   14.46861
       O    -7.41657   -1.88370   13.52859
      H1    -8.20341   -1.30962   13.46090
       H   -11.41735   -3.21148   12.48090
       O   -10.98478   -2.47197   12.05389
      H1   -11.15695   -2.60329   11.08034
       H    -8.46954   -3.87347   10.37222
       O    -8.46472   -4.59978   11.03168
      H1    -8.24452   -4.17443   11.86254
       H    -4.40070   -0.58886   15.41194
       O    -4.34285   -0.19911   16.29950
      H1    -5.22467   -0.38745   16.61847
       H   -10.74260    0.07052   13.60123
       O   -10.23441   -0.66603   13.94069
      H1   -10.28133   -1.35333   13.26153
       H    -9.27073   -4.73529   13.99222
       O    -9.66688   -4.52169   14.82539
      H1    -9.31341   -5.20123   15.42306
       H    -5.22422   -4.00485   11.89069
       O    -5.90193   -3.35582   11.59769
      H1    -6.35295   -3.21217   12.43847
       H    -6.65894    1.86750   15.44044
       O    -6.58382    2.81268   15.61731
      H1    -5.78759    3.11677   15.14859
       H    -6.01003   -4.67924    9.96265
       O    -5.87954   -4.73326    9.02194
      H1    -6.55264   -4.15610    8.67566
       H    -7.25419   -1.65967   16.98930
       O    -6.84259   -1.18685   16.24297
      H1    -7.15277   -0.30310   16.41734
       H    -7.00038   -0.67204   11.04951
       O    -7.19639    0.25842   10.96069
      H1    -6.49891    0.57633   10.39189
       H   -10.72595   -1.52032   15.56793
       O   -10.79965   -1.96806   16.38562
      H1   -11.20677   -2.83904   16.19539
       H    -7.84344    2.18840   13.48624
       O    -8.02487    1.23793   13.35015
      H1    -7.70689    1.07153   12.44984
       H    -4.22277   -4.64100   14.88743
       O    -3.86741   -3.79767   14.59294
      H1    -3.18736   -3.57545   15.23906
       H    -8.46918   -3.10042   18.50069
       O    -8.77603   -2.22359   18.24308
      H1    -9.42239   -2.43819   17.56416
       H   -11.03154    2.06835   14.06411
       O   -10.89603    1.99297   13.11369
      H1    -9.94427    1.80163   13.10661
       H    -8.67094   -2.14404    9.18421
       O    -8.43684   -3.03263    8.85329
      H1    -9.29505   -3.43063    8.62337

