60
frame 0 | Written by MDAnalysis XYZWriter (release 2.4.3)
       H     0.63133    4.69671   -3.71351
       O     0.23944    5.57388   -3.90042
      H1     0.99800    6.14948   -4.03317
       H    -3.90026    2.26538   -7.24208
       O    -4.68013    1.80664   -6.90578
      H1    -5.44471    2.25586   -7.34202
       H    -5.00677    0.35827   -5.54761
       O    -5.38152   -0.52865   -5.49578
      H1    -5.90666   -0.47065   -4.68963
       H    -3.26250    3.16155   -3.09488
       O    -3.72330    2.50716   -3.66359
      H1    -3.92683    1.78875   -3.04461
       H    -1.98069    2.18820   -6.06425
       O    -1.82143    1.47653   -5.40758
      H1    -2.41389    1.70134   -4.67438
       H     0.08786    5.43199    0.56200
       O    -0.68552    5.40441   -0.03447
      H1    -0.63788    4.56542   -0.45775
       H    -4.38302    6.14736    0.02013
       O    -4.83078    5.52692   -0.56982
      H1    -5.07197    4.82711    0.03021
       H    -3.54772    3.00403    0.46008
       O    -3.90206    2.77875   -0.39831
      H1    -3.73835    1.84650   -0.49356
       H    -2.65348    5.53264   -6.13381
       O    -3.41394    6.08780   -6.38467
      H1    -2.96371    6.86047   -6.71986
       H    -0.89416    1.98028   -1.44851
       O    -1.26053    2.86909   -1.31541
      H1    -2.05472    2.71518   -0.83167
       H     0.82564    2.03488   -4.31932
       O     0.29088    2.63097   -3.79262
      H1    -0.56527    2.47340   -4.18069
       H    -7.25486    2.27030   -1.98292
       O    -7.36626    1.35167   -1.80361
      H1    -8.34953    1.30008   -1.77445
       H    -4.05915    6.51614   -4.68370
       O    -4.20246    7.12651   -3.93981
      H1    -3.75117    6.68687   -3.19352
       H    -3.35147   -0.26075   -2.57625
       O    -4.19347    0.17057   -2.40556
      H1    -4.81448   -0.42536   -2.82060
       H    -6.51671    3.45643   -5.74347
       O    -6.20600    3.80370   -4.88721
      H1    -5.30633    3.43911   -4.91013
       H    -2.87895    7.74728   -1.57763
       O    -1.98375    7.67614   -1.89188
      H1    -1.90144    6.76698   -2.20211
       H    -3.84422   -0.41921   -0.47468
       O    -3.64001   -0.08767    0.43068
      H1    -4.49127    0.02565    0.89433
       H    -0.50252    4.65282   -5.63702
       O    -1.31369    4.54847   -6.16138
      H1    -0.98287    4.51017   -7.05652
       H    -6.37858    4.28851   -3.14629
       O    -6.73240    4.56734   -2.28203
      H1    -6.02783    4.96473   -1.73112
       H    -3.63830    4.72233   -1.69699
       O    -2.97909    4.91448   -2.41477
      H1    -2.18837    4.45325   -2.10982

