60
frame 0 | Written by MDAnalysis XYZWriter (release 2.4.3)
       H    18.80308   19.13100  -14.78753
       O    18.40970   19.25878  -13.91349
      H1    18.81106   18.53920  -13.38350
       H    17.69453   13.46025  -11.93100
       O    17.81685   13.32148  -10.96747
      H1    16.94066   12.97909  -10.70170
       H    14.05965   18.73453  -14.94250
       O    13.25237   18.35526  -15.31386
      H1    13.56079   17.55834  -15.78257
       H    17.75022   17.79561  -10.98478
       O    17.49493   17.25320  -11.74320
      H1    17.74554   16.37366  -11.43671
       H    13.58060   12.58342  -18.44455
       O    14.41922   12.11457  -18.47373
      H1    15.04932   12.78356  -18.14109
       H    15.46663   13.28042  -13.90779
       O    15.15545   13.37581  -12.99758
      H1    15.13253   14.33347  -12.82816
       H    17.24132   16.51681   -8.53949
       O    18.19277   16.62950   -8.65084
      H1    18.62654   15.80291   -8.48274
       H    11.32752   17.23139  -15.75261
       O    10.80860   16.86980  -16.48627
      H1     9.88901   16.96954  -16.18687
       H    12.06729   17.55589  -17.60177
       O    12.71670   17.96219  -18.21011
      H1    12.64690   18.93901  -18.07786
       H    16.80552   18.16909  -17.19928
       O    16.26059   17.61868  -17.78143
      H1    15.87822   17.01039  -17.14409
       H    12.94371   18.18011  -11.56880
       O    13.85727   18.36042  -11.31531
      H1    13.89170   18.26897  -10.34612
       H    19.08561   16.75071  -15.65060
       O    18.11432   16.64111  -15.54440
      H1    17.90488   17.35399  -14.92197
       H    13.30116   15.31597  -15.84721
       O    13.95351   15.88440  -16.34506
      H1    13.61244   15.87415  -17.26078
       H    11.25361   14.77967  -15.19919
       O    12.05313   14.53092  -14.72960
      H1    12.07646   13.56396  -14.66415
       H    18.20720   11.88168  -16.28889
       O    18.27534   12.74487  -15.87539
      H1    18.22354   12.52061  -14.92496
       H    14.12061   15.41740   -9.48866
       O    15.03529   15.68893   -9.32279
      H1    15.32484   15.93705  -10.21807
       H    12.47560   15.83765  -13.06517
       O    12.19473   16.63692  -12.64100
      H1    11.24328   16.74162  -12.84863
       H    15.30223   14.51845  -16.54156
       O    15.62156   13.61727  -16.71055
      H1    16.49448   13.53535  -16.26768
       H    19.12050   14.53030  -13.26025
       O    18.18933   14.30934  -13.44070
      H1    17.96481   14.96635  -14.07527
       H    14.38527   16.95790  -12.19464
       O    14.92706   16.14268  -12.33104
      H1    15.82052   16.47566  -12.36612

