60
frame 0 | Written by MDAnalysis XYZWriter (release 2.4.3)
       H    17.67793   -7.09151    4.40657
       O    18.12645   -6.86408    5.22727
      H1    18.29474   -5.93148    5.11295
       H    14.80457   -5.69778   10.63591
       O    15.68054   -5.41390   10.28819
      H1    16.20043   -6.21002   10.37400
       H    17.67554   -4.39383    8.11971
       O    18.48252   -3.84664    8.09695
      H1    18.70179   -3.75813    7.15047
       H    16.52613    0.13506    9.91164
       O    15.90058    0.72266    9.45527
      H1    16.48099    1.22975    8.83973
       H    19.23360   -3.95164    4.67596
       O    18.49553   -4.22333    5.26022
      H1    17.80814   -3.57630    5.09688
       H    15.19618    2.86866    6.73871
       O    15.88424    3.46879    6.41051
      H1    16.31651    3.75354    7.22407
       H    15.38752   -3.14850    5.29087
       O    14.99284   -4.01925    5.49007
      H1    15.54266   -4.42937    6.18321
       H    16.82436   -2.04586    2.72869
       O    17.50136   -2.33914    3.32794
      H1    18.32456   -2.29677    2.81412
       H    18.52675   -0.55280   11.32269
       O    17.59900   -0.60469   11.59048
      H1    17.42105   -1.55258   11.57476
       H    17.49918   -7.75298    9.15847
       O    17.75519   -7.31628    9.99569
      H1    18.54031   -6.84277    9.78388
       H    18.42167    1.58324    5.30164
       O    18.30379    2.49515    5.57347
      H1    17.41762    2.50955    5.96788
       H    13.24543   -2.91817    8.19864
       O    13.06795   -2.90579    7.26805
      H1    13.81043   -3.41876    6.91304
       H    16.44806   -1.73129    4.61432
       O    16.02397   -1.49774    5.44843
      H1    16.72957   -1.24486    6.07146
       H    14.27551    1.20645    7.42281
       O    13.96430    2.03157    7.77945
      H1    14.22784    2.00039    8.70924
       H    18.25945   -0.09842    7.86375
       O    18.05091   -0.83090    7.31365
      H1    18.21667   -1.62416    7.86995
       H    13.46315    0.43046    5.34722
       O    14.30916    0.77618    5.04031
      H1    14.87676    0.00660    4.92292
       H    15.90821   -5.49538    8.27006
       O    16.40351   -5.32386    7.46505
      H1    16.60480   -6.23470    7.16094
       H    16.42696   -3.58655   12.06654
       O    16.80162   -3.23035   11.23888
      H1    16.34130   -3.89424   10.66598
       H    18.44024    0.26759    3.89742
       O    19.32603    0.21245    4.24043
      H1    19.69726   -0.57330    3.81613
       H    18.45953    2.11330    7.41203
       O    18.06027    1.79731    8.23130
      H1    18.64481    2.10078    8.95338

