60
frame 1 | Written by MDAnalysis XYZWriter (release 2.4.3)
       H     7.91655   -5.77063   14.04351
       O     8.77052   -5.70431   13.57725
      H1     8.49807   -5.57837   12.62785
       H     9.94575   -7.35355   13.30488
       O    10.49202   -8.10434   13.54532
      H1    11.38564   -7.73984   13.63238
       H     7.10840   -3.35148   13.76753
       O     6.84926   -2.61702   14.31464
      H1     6.11755   -3.06901   14.78245
       H     6.38250   -1.21390   17.16217
       O     6.54213   -0.63735   16.41145
      H1     6.81727   -1.20663   15.67467
       H    12.96703   -1.50977   17.39824
       O    12.63188   -0.74709   16.92459
      H1    11.70740   -0.96626   16.78483
       H     6.49519   -3.51645   11.45618
       O     6.64880   -4.39134   11.89368
      H1     6.28671   -5.03336   11.29369
       H     9.66071   -3.70510   11.08461
       O     9.33101   -3.00461   11.64246
      H1     8.42730   -2.95740   11.39107
       H     5.12583   -4.96964   14.44951
       O     4.58244   -4.16683   14.46888
      H1     4.36448   -4.01394   13.55048
       H     9.47774   -1.57968   16.04117
       O     9.96386   -0.85375   16.42749
      H1     9.57136   -0.83445   17.29315
       H    13.18334   -3.92529   18.86735
       O    13.56643   -4.64393   18.38274
      H1    14.43733   -4.74020   18.75469
       H    13.30179   -3.63369   15.37994
       O    14.09279   -3.98584   15.78773
      H1    13.76978   -4.57207   16.48155
       H     8.41751   -7.81135   17.52352
       O     8.58702   -7.48052   16.63601
      H1     8.99493   -8.23771   16.20823
       H     6.68431   -5.07760   17.51334
       O     6.47877   -4.94516   18.44717
      H1     5.79644   -5.57412   18.65294
       H    12.20243   -7.09375   16.76587
       O    12.85887   -7.56547   16.28138
      H1    12.95510   -7.10576   15.44295
       H    12.30375   -3.27729   12.53740
       O    11.59630   -3.62812   13.09667
      H1    10.74200   -3.31424   12.72529
       H     8.40419   -1.22439   12.77547
       O     8.24909   -0.31559   12.50261
      H1     7.48216   -0.12423   13.01334
       H    13.58198   -6.43280   13.13012
       O    12.70412   -6.41313   13.51062
      H1    12.48615   -5.47524   13.55816
       H     7.95205   -5.89149   15.88279
       O     7.40889   -5.10863   15.80793
      H1     8.10509   -4.44563   15.79696
       H     9.48238   -4.46053   14.80626
       O     9.84982   -3.94331   15.53574
      H1    10.62818   -3.54631   15.14589
       H    10.04288   -6.54891   17.27901
       O    10.92262   -6.12551   17.29479
      H1    10.83446   -5.36442   16.68720

