60
frame 0 | Written by MDAnalysis XYZWriter (release 2.4.3)
       H    12.80112    5.07006   11.43694
       O    13.10202    5.38540   10.57115
      H1    12.48284    4.99797    9.94183
       H    14.22940    3.67087   10.45920
       O    14.01281    2.75325   10.43715
      H1    14.80128    2.33217   10.81790
       H    12.39552    3.31065    4.20693
       O    11.73193    3.83113    4.70898
      H1    12.18923    4.65685    4.92891
       H     9.01227    2.70777    8.73382
       O     9.55501    3.04993    7.99515
      H1    10.19281    2.33873    7.99980
       H    11.65989    6.83937    6.46386
       O    11.34905    6.92447    7.38565
      H1    11.69260    6.10546    7.78205
       H     5.28457    3.14612    9.81745
       O     5.73634    2.74498    9.07420
      H1     5.47196    1.82186    9.03426
       H     7.83584   -0.37994    7.49995
       O     7.30011    0.35729    7.67549
      H1     6.62349    0.30100    6.98936
       H    12.03455   -1.34192   10.68688
       O    11.57190   -0.54312   10.41080
      H1    11.62780    0.05029   11.16837
       H    11.36028    0.34365    8.82390
       O    11.37842    0.94118    8.06294
      H1    12.29111    1.24013    8.00666
       H     7.58886    2.68168   10.08883
       O     8.15429    1.89088   10.12963
      H1     7.96962    1.47537    9.27324
       H    14.27551    1.20645    7.42281
       O    13.96430    2.03157    7.77945
      H1    14.22784    2.00039    8.70924
       H    12.64080    3.48136    8.65681
       O    12.02663    4.18021    8.41778
      H1    11.17420    3.75347    8.52716
       H     9.49778    2.27544    6.24786
       O     9.87204    2.26758    5.35229
      H1    10.62464    2.88157    5.41980
       H     8.04822    0.65815   13.27131
       O     7.62781    0.34531   12.49502
      H1     7.95532    0.95065   11.77315
       H    11.55548   -0.03208    6.38831
       O    12.12387   -0.55069    5.84601
      H1    12.51548   -1.20299    6.44914
       H    12.62867    2.20380   11.47682
       O    12.23510    1.75657   12.24841
      H1    12.90738    1.15198   12.56091
       H     8.87537    3.03571    2.40031
       O     9.20919    2.19417    2.71244
      H1     9.59951    2.31565    3.58943
       H     9.51401   -2.61586    7.58067
       O     8.78986   -2.02608    7.79158
      H1     8.10076   -2.41949    7.25579
       H     7.58472    5.11513    6.79308
       O     6.63934    5.00251    6.74344
      H1     6.37800    4.18277    7.10540
       H    10.08910    5.89539    6.66853
       O     9.51354    5.48988    5.98001
      H1     9.81885    4.60405    5.87759

