60
frame 1 | Written by MDAnalysis XYZWriter (release 2.4.3)
       H    -7.43088    8.68646  -18.14557
       O    -8.43316    8.61620  -18.20129
      H1    -8.84091    8.90879  -17.44398
       H   -11.17708   11.24616  -14.31750
       O   -12.02161   11.56996  -14.66063
      H1   -12.38280   12.11080  -13.93580
       H   -11.64600    8.37285  -18.90427
       O   -10.87852    8.26268  -19.47184
      H1   -10.08370    8.48085  -18.96988
       H    -8.19682   11.55733  -17.08695
       O    -8.91108   11.77903  -16.51861
      H1    -9.70885   11.46186  -16.92972
       H   -13.74886    7.59664  -17.32491
       O   -12.98589    7.99754  -17.72501
      H1   -13.22351    8.95236  -17.72902
       H   -14.23124   10.68342  -19.68141
       O   -15.09289   10.42478  -19.29748
      H1   -15.04114    9.40984  -19.44252
       H   -16.97344   10.78656  -18.79189
       O   -17.67617   11.21249  -18.35746
      H1   -17.56553   10.87049  -17.43963
       H   -13.38988   15.14030  -14.76253
       O   -14.28502   14.87463  -14.60514
      H1   -14.62560   14.71656  -15.51305
       H   -11.77401   11.22043  -16.42971
       O   -11.44155   10.69738  -17.17151
      H1   -11.26396    9.80906  -16.84459
       H   -13.34295   16.67279  -19.77032
       O   -13.70222   16.30899  -18.96667
      H1   -14.58914   16.04662  -19.22817
       H   -12.36719   17.18187  -17.83765
       O   -11.81020   17.16089  -17.05844
      H1   -11.62300   16.23535  -16.95798
       H   -13.59919   12.98057  -18.71372
       O   -13.22096   13.49539  -17.98989
      H1   -13.32182   14.40443  -18.27413
       H    -9.08547   15.13762  -16.54861
       O    -9.64893   14.44342  -16.79333
      H1    -9.24519   13.63699  -16.46883
       H   -12.01865   10.89857  -18.84319
       O   -12.52413   11.08757  -19.65689
      H1   -12.15578   11.95223  -19.98654
       H    -7.71713   12.83396  -19.12310
       O    -7.14483   12.21226  -18.66584
      H1    -6.91381   12.69890  -17.90028
       H    -9.30620   16.92096  -17.93831
       O    -9.35454   16.79607  -18.91223
      H1    -9.50212   17.52237  -19.44459
       H   -15.01123   13.47107  -17.15605
       O   -15.88984   13.78664  -16.93823
      H1   -16.25451   14.25049  -17.65320
       H   -14.51379   10.89989  -17.12099
       O   -14.70534   10.42450  -16.34178
      H1   -13.89658   10.18945  -15.83492
       H    -9.61066   15.03269  -19.44518
       O    -9.62835   14.08275  -19.66736
      H1    -9.53335   13.72929  -18.76500
       H   -16.16649   14.95665  -19.77733
       O   -16.59196   15.51873  -19.13259
      H1   -17.34463   15.03575  -18.83341

