60
frame 0 | Written by MDAnalysis XYZWriter (release 2.4.3)
       H    -7.40376   12.03137    8.74594
       O    -7.77897   11.47600    9.44033
      H1    -8.12953   10.74407    8.92634
       H    -7.71059    9.87907   13.02750
       O    -6.91380   10.36755   13.28010
      H1    -6.85026   11.08854   12.62485
       H   -11.93943   13.44259   10.44606
       O   -12.54870   12.74214   10.20714
      H1   -12.24002   12.55904    9.30149
       H   -10.39661    6.36597    8.84989
       O    -9.64598    6.52256    8.23227
      H1   -10.06367    6.66709    7.36877
       H    -7.03897    8.25036    9.76628
       O    -6.52175    7.42060    9.65668
      H1    -5.93075    7.65611    8.93467
       H   -13.31247   12.54566    7.58387
       O   -12.31891   12.43564    7.61272
      H1   -12.13503   11.58430    7.15979
       H    -6.73396   11.82913    5.69946
       O    -7.43475   11.52578    6.28087
      H1    -7.53595   10.63032    5.99520
       H   -11.91935   10.00499   11.64270
       O   -11.18594    9.56705   11.20705
      H1   -10.51247   10.26517   11.17378
       H    -6.82850    8.62859    5.90251
       O    -7.61598    8.98785    5.51026
      H1    -7.85443    8.26977    4.89737
       H    -9.55223    9.21565    7.56613
       O    -9.04701    9.05466    8.36168
      H1    -9.01612    8.08516    8.36224
       H    -8.62777   12.46886   12.32282
       O    -7.72899   12.56853   11.95636
      H1    -7.70075   11.92768   11.23230
       H   -11.03518    9.42106    5.90655
       O   -10.13604    9.81583    5.99997
      H1    -9.53383    9.16757    5.67591
       H   -12.22647    9.10836    9.89265
       O   -13.06573    8.93732    9.46974
      H1   -13.67850    9.47493   10.01163
       H    -6.64957   12.95252    7.17340
       O    -6.21418   13.63801    7.68594
      H1    -6.92965   14.22492    7.91431
       H   -10.12880   13.80307    7.41950
       O    -9.27465   14.26906    7.29557
      H1    -9.30898   14.96807    7.93155
       H    -4.40629   10.56967   10.36403
       O    -4.20609   10.83663   11.27595
      H1    -4.43605   11.78447   11.29384
       H    -4.80720    7.77076    6.83728
       O    -5.53399    8.30055    7.17922
      H1    -5.04428    8.98710    7.62578
       H    -4.18043   11.03406    7.81754
       O    -4.37101   10.32247    8.45037
      H1    -3.50159   10.14299    8.74193
       H    -4.08484   14.57958    9.66199
       O    -3.90946   13.85324    9.02038
      H1    -4.82461   13.68991    8.68891
       H    -7.00285   15.72779   10.29598
       O    -7.18034   15.30054   11.13146
      H1    -7.62799   14.47643   10.90337

