60
frame 0 | Written by MDAnalysis XYZWriter (release 2.4.3)
       H     1.93843  -10.87414    3.67040
       O     1.14914  -10.35057    3.45357
      H1     0.81874  -10.71396    2.62146
       H     2.86829  -12.31558    0.97509
       O     3.29784  -11.48462    0.72362
      H1     4.24665  -11.60078    0.73868
       H    -1.76820  -15.72019    0.69500
       O    -0.88012  -15.98042    0.93992
      H1    -0.60405  -16.53861    0.19893
       H    -3.97333  -13.16499    5.55298
       O    -3.06642  -13.08038    5.20722
      H1    -2.78416  -12.17955    5.49854
       H    -0.50015  -14.26393    0.95948
       O    -0.39221  -13.30292    1.03962
      H1    -0.63233  -12.96810    0.14416
       H     1.68362  -16.60275    3.49842
       O     2.62479  -16.57899    3.65217
      H1     2.86990  -17.49845    3.89564
       H     0.79634  -15.96068    5.36181
       O     0.85119  -16.18836    6.27588
      H1     1.15786  -17.09148    6.24428
       H    -3.14316   -9.61052    3.35767
       O    -2.28964   -9.27347    3.07217
      H1    -1.91336   -9.91902    2.48290
       H    -2.90697  -16.23437    3.70035
       O    -2.32398  -15.78973    4.35554
      H1    -2.71677  -14.89959    4.37444
       H     4.50328  -14.30125    2.03377
       O     4.71339  -14.77898    2.84777
      H1     3.83914  -15.04718    3.15575
       H    -0.28624  -16.69120    2.40968
       O    -0.13231  -16.95510    3.31250
      H1    -0.91023  -16.58791    3.76243
       H    -3.19935  -13.83461    1.36692
       O    -3.40061  -14.77004    1.20331
      H1    -3.85119  -14.73795    0.34625
       H    -0.12005  -10.94403    4.66045
       O    -0.62250  -11.57428    5.20260
      H1    -0.03075  -11.89659    5.91980
       H     2.70407  -15.14912    0.78033
       O     2.34957  -14.26880    0.88062
      H1     1.40827  -14.33342    0.69318
       H     1.99559  -13.18922    6.71840
       O     1.18914  -12.69023    6.94453
      H1     1.54091  -11.84108    7.27859
       H    -2.68444  -12.20111    3.31918
       O    -2.54681  -12.44384    2.39817
      H1    -1.66416  -12.84992    2.34682
       H    -0.17570   -9.65568    0.15497
       O     0.10495  -10.18288    0.93150
      H1     0.44216  -11.01186    0.57603
       H    -2.73608  -11.44543    0.81327
       O    -2.93865  -10.91927    0.04770
      H1    -3.70920  -11.35720   -0.30998
       H     4.00667  -12.52591    3.67203
       O     3.50753  -12.04025    4.30648
      H1     3.17894  -12.72993    4.89007
       H     0.42041  -13.42730    2.77511
       O     0.51042  -13.74442    3.67279
      H1     0.18168  -13.06997    4.27012

