60
frame 0 | Written by MDAnalysis XYZWriter (release 2.4.3)
       H    -4.88677   -2.84841   -0.58104
       O    -4.24997   -2.36511   -1.09549
      H1    -4.61688   -2.36019   -2.00226
       H    -1.98069    2.18820   -6.06425
       O    -1.82143    1.47653   -5.40758
      H1    -2.41389    1.70134   -4.67438
       H    -0.93724   -1.65255   -4.27964
       O    -0.74135   -1.24694   -5.13254
      H1    -1.02635   -0.35215   -5.03634
       H    -3.78882   -3.07837   -7.11325
       O    -4.54272   -3.67157   -6.92534
      H1    -5.31648   -3.26857   -7.34709
       H     0.82564    2.03488   -4.31932
       O     0.29088    2.63097   -3.79262
      H1    -0.56527    2.47340   -4.18069
       H    -0.53979    1.37048   -7.24539
       O     0.38337    1.14842   -7.55074
      H1     0.56544    1.84969   -8.21282
       H    -1.70575   -2.07075   -2.15195
       O    -1.61582   -1.15682   -2.43675
      H1    -1.12672   -0.75469   -1.73571
       H    -2.67175   -3.05548   -0.74131
       O    -1.76247   -3.40884   -0.52729
      H1    -1.93486   -4.25148   -0.08337
       H    -5.22338   -3.48052   -3.89524
       O    -4.61454   -2.82645   -3.56742
      H1    -4.15516   -2.52404   -4.36451
       H     1.51823    0.10853   -6.70014
       O     2.08363   -0.44483   -6.18198
      H1     2.84419   -0.57308   -6.73058
       H    -4.09531    0.27570   -7.82896
       O    -3.75285   -0.15568   -8.59109
      H1    -3.03833   -0.71555   -8.22287
       H    -3.35147   -0.26075   -2.57625
       O    -4.19347    0.17057   -2.40556
      H1    -4.81448   -0.42536   -2.82060
       H    -0.51047   -3.84470   -7.94914
       O    -0.72830   -4.45556   -8.67177
      H1    -1.21363   -5.12649   -8.18688
       H    -1.51206   -6.49475   -3.97102
       O    -1.66282   -5.63763   -4.37051
      H1    -1.11534   -5.06864   -3.83236
       H     0.36335   -2.81127   -5.59384
       O     0.95425   -3.01583   -6.33409
      H1     1.25746   -2.13070   -6.60659
       H    -1.69722   -1.96555   -6.45039
       O    -2.21646   -2.26709   -7.19953
      H1    -1.59184   -2.26751   -7.91980
       H     0.33074   -3.55515   -2.64031
       O    -0.17081   -4.35762   -2.43186
      H1    -0.73203   -4.12240   -1.65794
       H     1.96914   -4.55651   -5.72481
       O     2.88165   -4.72200   -5.48592
      H1     2.81158   -5.64947   -5.20012
       H     2.52142   -2.55106   -2.99679
       O     1.77819   -2.31223   -2.40972
      H1     2.20301   -1.69771   -1.78989
       H    -0.01958    0.30403    0.25240
       O     0.13252    0.39016   -0.69736
      H1     1.11463    0.37567   -0.67519

