60
frame 1 | Written by MDAnalysis XYZWriter (release 2.4.3)
       H     0.63258  -13.36400    8.73815
       O     1.00725  -13.19199    9.60757
      H1     1.37539  -14.03248    9.86611
       H     0.46174  -14.76791   14.08844
       O     1.07910  -14.53456   13.37580
      H1     1.68792  -13.89568   13.79942
       H    -0.26676  -13.44760   12.13879
       O    -0.85933  -12.71256   11.96109
      H1    -0.45510  -12.30497   11.15427
       H     3.56874  -11.14091   12.37971
       O     3.59100  -10.17596   12.43582
      H1     3.69816   -9.89127   11.51889
       H     3.48984  -11.17881    9.38632
       O     2.63898  -11.03426    8.94868
      H1     2.09310  -11.77203    9.27846
       H    -4.79493  -11.84670   15.89043
       O    -4.32452  -12.53073   15.42827
      H1    -4.04346  -12.05449   14.64846
       H    -3.23586   -9.33020   11.83086
       O    -2.27361   -9.52280   11.85179
      H1    -1.98382   -9.28555   10.95715
       H    -0.72240  -13.40067   15.85554
       O    -0.47260  -14.35546   15.88740
      H1    -1.17143  -14.74275   16.38355
       H    -2.58617  -13.41670   10.62463
       O    -2.42918  -13.78598    9.74218
      H1    -2.87420  -13.08629    9.17127
       H     0.08899  -15.90024    7.85904
       O    -0.57687  -15.72237    8.53340
      H1    -0.57757  -14.76219    8.63908
       H    -4.18135  -10.96741    9.30360
       O    -4.14469  -11.80090    8.79534
      H1    -5.04846  -11.95895    8.53674
       H    -4.32284  -11.45332   12.29364
       O    -3.63614  -12.09217   12.45982
      H1    -2.81356  -11.57285   12.52012
       H    -5.10724  -14.49615   11.25393
       O    -5.45030  -13.69639   10.85286
      H1    -4.77119  -13.05904   10.96626
       H    -2.18638  -16.92439    9.93517
       O    -2.86619  -16.35573   10.32518
      H1    -2.64861  -15.43574   10.01559
       H     0.69754  -12.53264   15.09862
       O    -0.02480  -11.93148   14.95288
      H1    -0.15309  -11.90096   13.98389
       H    -2.58160   -8.85716   15.29842
       O    -2.15901   -9.66154   15.59604
      H1    -1.68899   -9.99640   14.83864
       H    -1.96084  -16.65027   13.54134
       O    -1.07220  -16.33333   13.72864
      H1    -0.98200  -16.45834   14.70219
       H     0.43924  -16.17475   12.26729
       O     0.66870  -16.87694   11.62298
      H1     0.38584  -16.53173   10.76428
       H    -0.31322   -9.63739    8.99985
       O    -0.16237   -9.27938    9.88139
      H1     0.66389   -8.78505    9.79099
       H     1.94281   -9.70282   12.70505
       O     1.07516   -9.48487   13.08472
      H1     0.51670   -9.34424   12.33377

