60
frame 0 | Written by MDAnalysis XYZWriter (release 2.4.3)
       H    12.80112    5.07006   11.43694
       O    13.10202    5.38540   10.57115
      H1    12.48284    4.99797    9.94183
       H    14.22940    3.67087   10.45920
       O    14.01281    2.75325   10.43715
      H1    14.80128    2.33217   10.81790
       H     9.01227    2.70777    8.73382
       O     9.55501    3.04993    7.99515
      H1    10.19281    2.33873    7.99980
       H    16.52613    0.13506    9.91164
       O    15.90058    0.72266    9.45527
      H1    16.48099    1.22975    8.83973
       H    10.74784    2.40194   13.21649
       O     9.85167    2.24450   13.48236
      H1     9.53782    3.15168   13.70691
       H    15.19618    2.86866    6.73871
       O    15.88424    3.46879    6.41051
      H1    16.31651    3.75354    7.22407
       H    17.60023    5.93392    8.49472
       O    17.05323    5.28056    8.98729
      H1    16.35232    5.86272    9.36364
       H    15.70080    3.27295   13.45241
       O    15.09706    3.31702   14.17281
      H1    15.59236    3.93476   14.73145
       H    12.03455   -1.34192   10.68688
       O    11.57190   -0.54312   10.41080
      H1    11.62780    0.05029   11.16837
       H    14.34843    7.03993    9.67485
       O    15.25567    7.34172    9.57083
      H1    15.65419    7.15794   10.42686
       H    11.36028    0.34365    8.82390
       O    11.37842    0.94118    8.06294
      H1    12.29111    1.24013    8.00666
       H    16.82399    5.64226   12.16106
       O    16.16185    6.31380   12.09013
      H1    15.47418    6.09756   12.75856
       H    12.19500    7.91128   12.47516
       O    13.05595    7.52273   12.29582
      H1    12.83966    6.85199   11.63307
       H    13.39146    4.58415   13.59761
       O    12.53530    4.64725   13.16455
      H1    12.28578    3.71060   13.12980
       H    14.27551    1.20645    7.42281
       O    13.96430    2.03157    7.77945
      H1    14.22784    2.00039    8.70924
       H    12.64080    3.48136    8.65681
       O    12.02663    4.18021    8.41778
      H1    11.17420    3.75347    8.52716
       H    17.30971    2.91668   11.35414
       O    16.44106    2.68661   11.73801
      H1    16.59777    1.81750   12.18219
       H    13.52030   -0.62385   13.68377
       O    14.19368    0.08120   13.72725
      H1    14.10464    0.45108   14.62393
       H    12.62867    2.20380   11.47682
       O    12.23510    1.75657   12.24841
      H1    12.90738    1.15198   12.56091
       H    18.45953    2.11330    7.41203
       O    18.06027    1.79731    8.23130
      H1    18.64481    2.10078    8.95338

