60
frame 1 | Written by MDAnalysis XYZWriter (release 2.4.3)
       H    -7.81943   -7.85153  -17.20907
       O    -7.50367   -8.61353  -17.76444
      H1    -7.12039   -8.30667  -18.56143
       H    -4.87722  -12.12547  -16.09617
       O    -4.53564  -12.80621  -15.51915
      H1    -3.81149  -13.13135  -16.15363
       H    -1.64581  -10.27223  -17.90318
       O    -1.02295  -11.00670  -18.11913
      H1    -1.19151  -11.19553  -19.04356
       H    -4.71090   -9.61882  -15.91520
       O    -5.20486   -9.78010  -16.72017
      H1    -5.96165   -9.19964  -16.94468
       H     0.86438  -10.55150  -18.60573
       O     1.69790  -10.74667  -19.04843
      H1     2.41035  -10.57029  -18.37634
       H    -3.42979   -5.56810  -17.01199
       O    -4.27761   -5.12027  -16.88200
      H1    -4.14750   -4.22623  -16.47200
       H    -1.76631  -12.81355  -17.45012
       O    -2.37697  -13.45899  -17.01539
      H1    -2.72323  -14.01965  -17.70201
       H    -6.72493   -6.04995  -17.45945
       O    -7.47137   -6.08477  -16.84785
      H1    -8.15257   -5.50542  -17.13941
       H    -3.09474   -9.98275  -19.46367
       O    -3.15082   -9.35083  -18.70856
      H1    -3.93717   -9.39179  -18.21637
       H    -0.74816   -9.19283  -14.79802
       O    -1.21749   -8.41573  -14.42961
      H1    -1.05318   -8.44961  -13.46195
       H     2.10490   -9.04013  -19.56897
       O     2.07225   -8.12482  -19.84335
      H1     2.95705   -7.81164  -19.50879
       H    -4.18356   -8.01339  -14.37051
       O    -4.17083   -8.95194  -14.34691
      H1    -3.23399   -9.21136  -14.30986
       H    -6.32370  -12.46671  -18.75564
       O    -6.85804  -12.50282  -17.91666
      H1    -6.55929  -11.68495  -17.45851
       H    -2.82759  -14.92127  -20.23141
       O    -3.30206  -14.63564  -19.41478
      H1    -3.20977  -15.36574  -18.78898
       H    -5.13936   -5.46353  -18.15009
       O    -5.78852   -5.84286  -18.83294
      H1    -5.30108   -6.02734  -19.66017
       H     1.03587   -6.89711  -19.15794
       O     0.54257   -6.17455  -18.70200
      H1     0.76188   -5.44057  -19.28158
       H    -3.20869  -12.69604  -14.13757
       O    -2.43874  -12.41563  -13.60825
      H1    -2.89758  -11.78333  -12.95689
       H    -8.23721  -11.77535  -17.25863
       O    -9.03716  -11.22390  -17.07967
      H1    -8.81838  -10.32621  -16.69092
       H    -2.47829   -7.63446  -18.18473
       O    -2.26225   -6.72071  -17.86135
      H1    -1.32278   -6.60477  -18.05409
       H    -1.18498  -11.83291  -14.91521
       O    -0.55775  -11.23575  -15.35208
      H1    -0.63886  -11.40545  -16.27823

