60
frame 0 | Written by MDAnalysis XYZWriter (release 2.4.3)
       H     7.46795    8.17290    9.38877
       O     8.10312    8.31515    8.63838
      H1     8.89935    8.53419    9.13717
       H     4.82159    9.12151    5.49498
       O     4.25352    8.68891    4.83197
      H1     3.85670    7.95207    5.32158
       H     5.36205    6.19298   13.25225
       O     5.01608    6.43699   12.38136
      H1     5.05544    5.53245   11.92367
       H     1.34034    3.10793    8.53893
       O     1.57196    4.03317    8.81326
      H1     0.78221    4.46067    9.13869
       H    -0.73640    6.22741    9.56060
       O    -0.83580    5.26341    9.57315
      H1    -1.37033    5.10267    8.78291
       H     4.99787   10.48188   12.14057
       O     4.95307   10.66603   11.20313
      H1     3.99910   10.79818   11.04127
       H     5.64023    7.51792   11.20592
       O     6.20541    8.08285   10.61189
      H1     5.81308    8.97356   10.64384
       H     6.57973    8.81264    7.70590
       O     5.77284    9.13945    7.29327
      H1     5.16004    8.43482    7.52738
       H     3.04943    6.85433   11.92477
       O     2.45339    6.56671   11.21268
      H1     2.30552    7.34451   10.69205
       H     0.90767    8.25745    8.67021
       O     0.51712    8.09375    9.53385
      H1     1.03910    8.65909   10.13079
       H    -1.31997    7.54466    6.35966
       O    -0.39107    7.50731    6.08905
      H1    -0.40143    8.06721    5.30346
       H     2.39152    7.34246    7.35106
       O     2.76853    8.18046    7.70293
      H1     3.49209    7.75622    8.21055
       H     3.28249    5.10296   11.01668
       O     3.88370    4.36351   10.94125
      H1     3.69624    4.07213   10.03268
       H     5.44747    6.48077    7.73694
       O     5.02681    6.57989    8.61836
      H1     5.77241    6.67012    9.24139
       H     3.46602    5.99745    3.62815
       O     3.39792    6.06662    4.58545
      H1     2.52690    5.69658    4.80342
       H     2.55803   10.65038    9.42863
       O     2.36258   10.23300   10.28046
      H1     1.59536   10.75367   10.58037
       H     0.84537    6.32054    6.67357
       O     1.66206    5.82390    6.81760
      H1     1.50161    5.40457    7.67263
       H     4.89749   11.93051    6.18229
       O     5.10312   11.89955    7.13774
      H1     5.50942   11.01996    7.27732
       H     2.63255   10.00777    7.66902
       O     2.65505   10.96555    7.57920
      H1     3.58014   11.16339    7.35754
       H     7.58472    5.11513    6.79308
       O     6.63934    5.00251    6.74344
      H1     6.37800    4.18277    7.10540

