60
frame 0 | Written by MDAnalysis XYZWriter (release 2.4.3)
       H    -3.79502   10.15800   -4.44730
       O    -4.34741   10.87603   -4.04654
      H1    -5.25397   10.51771   -4.04636
       H    -0.18153   10.95163   -3.36481
       O     0.03943   11.44390   -4.17870
      H1     0.55278   10.74837   -4.60333
       H     1.22632    9.30584   -3.57598
       O     1.98043    8.88230   -4.06308
      H1     2.78015    9.04639   -3.52238
       H    -0.45480   14.69553   -3.98693
       O    -0.84149   14.01809   -3.41822
      H1    -0.40990   13.21582   -3.70828
       H    -0.61098    7.82520   -9.92942
       O    -0.13061    7.41429   -9.21694
      H1    -0.51768    7.83587   -8.46123
       H    -2.95502   15.44800   -5.35205
       O    -2.83001   14.52626   -5.16279
      H1    -2.19761   14.45649   -4.46254
       H    -4.38624   13.91644   -5.80873
       O    -5.11815   13.66767   -6.38503
      H1    -5.88605   13.60757   -5.79532
       H     3.33485   13.70113   -5.40375
       O     2.43286   13.72378   -5.09365
      H1     2.29424   14.64692   -4.77368
       H    -1.17279   11.19980   -9.86491
       O    -1.91913   10.73235   -9.39958
      H1    -1.65660   10.90444   -8.47561
       H     0.24650   13.36094  -10.71527
       O     0.22302   12.42995  -10.80905
      H1     1.16194   12.26528  -10.76666
       H    -0.00963   11.65294   -7.30726
       O    -0.91616   11.60473   -6.97536
      H1    -0.78013   11.65865   -6.00445
       H     3.66330   11.48559  -10.31430
       O     2.80300   11.44639   -9.87304
      H1     2.52026   10.53582   -9.83328
       H     3.01499   10.37555   -6.70014
       O     3.48826   10.16664   -5.86150
      H1     2.85512    9.60360   -5.37161
       H     1.97319   12.56168   -6.90703
       O     1.64132   11.76722   -7.35763
      H1     2.09395   11.77874   -8.21174
       H    -1.88274    8.37639   -6.39199
       O    -1.97861    8.19419   -7.33340
      H1    -2.54806    8.89451   -7.70866
       H    -2.39260   14.02931   -9.18943
       O    -3.04187   14.27813   -9.88440
      H1    -3.19724   13.42010  -10.30527
       H     0.21373   15.50447   -5.97726
       O     0.27541   15.86347   -5.08661
      H1    -0.33870   16.60162   -5.06337
       H    -3.75497    9.96539   -9.93663
       O    -4.49338    9.62226  -10.40415
      H1    -5.03824    9.13736   -9.79199
       H    -2.92580    8.37351   -4.45238
       O    -2.21453    8.98354   -4.71036
      H1    -1.95997    9.33930   -3.83315
       H    -1.19469   13.29325   -7.44929
       O    -1.54785   14.18403   -7.53204
      H1    -1.99697   14.25058   -6.65743

