60
frame 0 | Written by MDAnalysis XYZWriter (release 2.4.3)
       H    12.80112    5.07006   11.43694
       O    13.10202    5.38540   10.57115
      H1    12.48284    4.99797    9.94183
       H    14.22940    3.67087   10.45920
       O    14.01281    2.75325   10.43715
      H1    14.80128    2.33217   10.81790
       H     9.01227    2.70777    8.73382
       O     9.55501    3.04993    7.99515
      H1    10.19281    2.33873    7.99980
       H    16.52613    0.13506    9.91164
       O    15.90058    0.72266    9.45527
      H1    16.48099    1.22975    8.83973
       H    11.65989    6.83937    6.46386
       O    11.34905    6.92447    7.38565
      H1    11.69260    6.10546    7.78205
       H    15.19618    2.86866    6.73871
       O    15.88424    3.46879    6.41051
      H1    16.31651    3.75354    7.22407
       H    17.60023    5.93392    8.49472
       O    17.05323    5.28056    8.98729
      H1    16.35232    5.86272    9.36364
       H    12.03455   -1.34192   10.68688
       O    11.57190   -0.54312   10.41080
      H1    11.62780    0.05029   11.16837
       H    11.36028    0.34365    8.82390
       O    11.37842    0.94118    8.06294
      H1    12.29111    1.24013    8.00666
       H    18.42167    1.58324    5.30164
       O    18.30379    2.49515    5.57347
      H1    17.41762    2.50955    5.96788
       H    16.44806   -1.73129    4.61432
       O    16.02397   -1.49774    5.44843
      H1    16.72957   -1.24486    6.07146
       H    14.27551    1.20645    7.42281
       O    13.96430    2.03157    7.77945
      H1    14.22784    2.00039    8.70924
       H    12.64080    3.48136    8.65681
       O    12.02663    4.18021    8.41778
      H1    11.17420    3.75347    8.52716
       H    18.25945   -0.09842    7.86375
       O    18.05091   -0.83090    7.31365
      H1    18.21667   -1.62416    7.86995
       H    15.19677    5.02271    5.62457
       O    15.26397    5.89936    5.20130
      H1    15.24185    6.53114    5.93176
       H    13.46315    0.43046    5.34722
       O    14.30916    0.77618    5.04031
      H1    14.87676    0.00660    4.92292
       H    17.30971    2.91668   11.35414
       O    16.44106    2.68661   11.73801
      H1    16.59777    1.81750   12.18219
       H    11.55548   -0.03208    6.38831
       O    12.12387   -0.55069    5.84601
      H1    12.51548   -1.20299    6.44914
       H    12.62867    2.20380   11.47682
       O    12.23510    1.75657   12.24841
      H1    12.90738    1.15198   12.56091
       H    18.45953    2.11330    7.41203
       O    18.06027    1.79731    8.23130
      H1    18.64481    2.10078    8.95338

