60
frame 0 | Written by MDAnalysis XYZWriter (release 2.4.3)
       H     2.72320    7.26190   -5.02108
       O     3.15729    6.63960   -5.62502
      H1     4.03266    6.48555   -5.20713
       H     0.63133    4.69671   -3.71351
       O     0.23944    5.57388   -3.90042
      H1     0.99800    6.14948   -4.03317
       H     7.53761    1.89440   -6.34245
       O     6.69794    1.52523   -6.63346
      H1     6.16902    2.29251   -6.88547
       H     7.70767    7.48913   -4.87216
       O     8.57724    7.24982   -4.56858
      H1     8.35972    6.82443   -3.73137
       H     5.94343    1.48087   -4.82613
       O     5.71087    1.10470   -3.94798
      H1     4.79036    1.37993   -3.77952
       H     5.17033    5.69874  -10.40908
       O     5.33481    5.86176   -9.45973
      H1     5.72153    5.04001   -9.13527
       H     8.02710    2.58533   -2.49119
       O     7.62535    3.11374   -3.17805
      H1     6.88685    2.54149   -3.45268
       H     2.98358    4.07465   -7.08124
       O     3.39747    3.40360   -6.52580
      H1     3.70930    2.78460   -7.18631
       H     5.61470    5.48743   -4.36908
       O     5.36583    5.29847   -5.28916
      H1     4.68925    4.60092   -5.23320
       H     7.21121    4.18746   -7.01279
       O     6.57502    4.24482   -7.74761
      H1     7.09132    3.75464   -8.39303
       H     5.60147    9.11701   -6.09909
       O     6.09467    8.27715   -6.14749
      H1     5.54451    7.69710   -6.69139
       H     6.79454    4.84358   -0.40363
       O     6.64253    4.90942   -1.34219
      H1     7.06672    4.16916   -1.75161
       H     5.69846    8.05160   -4.44506
       O     5.74471    7.70436   -3.54495
      H1     5.19723    8.35835   -3.06203
       H     4.92836    5.01599   -2.14856
       O     4.17677    5.11280   -2.69162
      H1     3.71869    4.24458   -2.66698
       H     6.99630    6.60563   -1.53829
       O     7.55511    7.32125   -1.18856
      H1     7.16577    8.12000   -1.54880
       H     5.63330   10.46364   -7.96798
       O     5.08270    9.84096   -8.47672
      H1     4.80747    9.08681   -7.91790
       H     8.59478    3.15294   -4.69957
       O     8.84373    3.24999   -5.61400
      H1     9.54390    2.60077   -5.74164
       H     4.48127    6.75588   -8.38105
       O     3.87936    7.39536   -7.96509
      H1     3.66616    6.95811   -7.13342
       H     9.17755    6.15930   -5.90589
       O     9.62753    5.65072   -6.58028
      H1     9.67722    4.74331   -6.23927
       H     2.86500    0.86376   -4.95319
       O     3.01878    1.66733   -4.46225
      H1     2.89009    2.36824   -5.12521

