60
frame 0 | Written by MDAnalysis XYZWriter (release 2.4.3)
       H   -12.81849   -4.47452   -1.62816
       O   -12.76417   -3.50668   -1.60828
      H1   -12.41969   -3.27494   -0.73484
       H   -12.90379   -6.09563   -5.19570
       O   -13.33643   -5.49002   -4.54617
      H1   -12.65512   -4.78980   -4.49688
       H   -16.68782   -2.68927    4.03946
       O   -17.36540   -2.29099    3.49941
      H1   -17.14341   -2.58849    2.61450
       H   -14.86663   -5.65498   -0.43137
       O   -15.60423   -5.51277    0.19128
      H1   -15.34686   -6.11305    0.92224
       H   -17.31553   -8.80760    0.11459
       O   -16.60596   -9.01560    0.76832
      H1   -16.47363   -9.94628    0.52195
       H   -11.28394   -4.86143    3.46382
       O   -12.18728   -4.56173    3.24917
      H1   -12.28004   -3.73768    3.78736
       H   -15.09605   -8.16299    1.25737
       O   -14.69441   -7.49060    1.80110
      H1   -14.98863   -7.70272    2.69412
       H   -15.35005   -2.30388    0.82439
       O   -16.08611   -2.89571    0.99954
      H1   -15.72267   -3.76083    0.76024
       H   -12.87533   -7.90417    1.96100
       O   -12.02203   -8.30518    1.82312
      H1   -12.26645   -9.23762    1.62052
       H    -9.47743   -7.17349   -1.13536
       O   -10.24719   -6.63825   -1.33450
      H1   -11.03353   -7.21358   -1.27501
       H   -18.25321   -6.68892    2.33549
       O   -18.88041   -6.56878    1.58619
      H1   -18.30862   -6.52546    0.81417
       H   -14.10419   -0.65404    1.14915
       O   -14.01494   -1.26980    0.42481
      H1   -14.00307   -0.69340   -0.35734
       H   -17.56310   -6.48391   -4.37871
       O   -18.27949   -6.76284   -3.78974
      H1   -17.90762   -6.61059   -2.90403
       H   -12.78553   -2.32817    1.01063
       O   -11.94066   -2.70685    1.25379
      H1   -12.16190   -3.54084    1.66752
       H   -16.98005   -6.08480   -0.65490
       O   -17.71108   -6.60130   -1.09100
      H1   -18.36914   -5.91863   -1.23596
       H   -19.27674   -4.09527   -0.29608
       O   -18.48711   -3.94903   -0.85155
      H1   -17.81376   -3.88159   -0.17532
       H   -13.43264   -5.87717   -2.85845
       O   -13.49641   -6.12005   -1.89423
      H1   -12.93438   -6.89282   -1.85968
       H   -15.19609   -1.44032   -3.09343
       O   -14.81628   -2.23421   -3.46671
      H1   -14.35864   -2.62885   -2.71547
       H   -11.34172   -8.82710   -1.05928
       O   -12.20524   -8.42838   -1.00356
      H1   -12.39153   -8.37221   -0.04842
       H   -16.17372   -4.77641   -5.33976
       O   -16.35550   -5.71997   -5.25076
      H1   -15.53564   -6.11399   -4.96959

