60
frame 0 | Written by MDAnalysis XYZWriter (release 2.4.3)
       H     5.62204   -1.14955    5.99364
       O     5.60093   -0.27387    5.61327
      H1     6.13993   -0.35361    4.81106
       H     3.79241   -1.85738    3.21865
       O     3.61520   -2.39561    4.00094
      H1     4.46639   -2.84645    4.02458
       H     0.97946    2.46959   -0.42921
       O     1.77431    2.88059   -0.07961
      H1     1.64271    3.79274   -0.34001
       H     0.25725    1.75925    4.66718
       O     1.10985    2.24904    4.77173
      H1     1.74453    1.64629    5.19441
       H     3.20505    0.39168   -1.18276
       O     2.65017   -0.10053   -0.56812
      H1     2.98268    0.15408    0.30605
       H     1.61240   -3.79058    2.57958
       O     1.37400   -3.86424    3.51961
      H1     1.75885   -3.06835    3.90849
       H     6.56346   -3.80456    2.11077
       O     5.87458   -3.60884    2.76653
      H1     5.39877   -4.44164    2.77564
       H     4.88300    5.05946    4.25185
       O     5.49186    4.41358    3.88827
      H1     6.35512    4.66990    4.22856
       H     2.05575    0.03890    6.51943
       O     2.05836   -0.69818    5.88157
      H1     1.11220   -0.92582    5.79225
       H     2.89462   -2.72212    7.63303
       O     3.07512   -3.03161    6.75775
      H1     3.11654   -2.16746    6.29825
       H     1.33067   -2.89258    1.01005
       O     2.14464   -3.42330    0.95408
      H1     2.86303   -2.79379    0.83572
       H     4.47750    2.39561    4.95141
       O     3.97948    1.64527    4.56770
      H1     4.28305    0.88001    5.05969
       H     4.73433   -0.39970    2.26958
       O     3.85782    0.00584    2.24167
      H1     3.88293    0.51123    3.07851
       H     2.04761    3.04021    3.31325
       O     2.31002    3.52147    2.49862
      H1     2.03924    2.96246    1.76744
       H     5.44860    3.82556    2.33970
       O     4.97021    3.36773    1.62879
      H1     4.15393    3.10856    2.11528
       H     6.88662    0.07977    2.52766
       O     6.72368   -0.58771    3.17944
      H1     7.33780   -1.29292    3.02221
       H     7.60283    1.75503    1.98839
       O     6.89496    1.45770    1.42799
      H1     6.20268    2.09902    1.55938
       H    -0.01958    0.30403    0.25240
       O     0.13252    0.39016   -0.69736
      H1     1.11463    0.37567   -0.67519
       H     5.26022    2.92315   -1.14218
       O     4.37637    2.53964   -1.32827
      H1     3.83463    2.85492   -0.62661
       H     3.39574    1.26736    7.67682
       O     2.43577    1.25309    7.73140
      H1     2.24516    0.64802    8.43564

