60
frame 0 | Written by MDAnalysis XYZWriter (release 2.4.3)
       H    13.89967   17.30597   -0.68572
       O    13.64736   16.36923   -0.53361
      H1    13.12282   16.40847    0.27978
       H    13.84256   17.95151    1.88282
       O    13.46595   17.75969    2.73211
      H1    13.33187   18.62942    3.16544
       H     7.08805   13.96051    3.28897
       O     7.74073   13.54334    3.85834
      H1     7.40552   12.65194    3.99342
       H     5.60050   14.80369    5.93188
       O     6.55887   14.65912    6.13004
      H1     6.89706   14.15690    5.35884
       H     7.17096   17.76728    4.75541
       O     7.58837   17.36032    3.97744
      H1     8.08153   16.63369    4.37880
       H     9.27606   12.54088   -2.04150
       O     8.30606   12.62801   -2.17280
      H1     8.09607   13.45309   -1.72861
       H    10.64370   18.34854    0.86120
       O    11.53224   18.17461    0.58957
      H1    11.38458   17.59694   -0.18530
       H    10.77464   16.31827   -2.42693
       O    11.11101   16.38168   -1.55424
      H1    12.06747   16.22958   -1.74442
       H     7.40684   15.52335    1.93340
       O     6.49957   15.63194    2.26280
      H1     6.61891   16.38734    2.81685
       H    10.31755   16.97076    3.89808
       O    10.65479   17.62640    3.28040
      H1    11.45448   17.24646    2.93385
       H     8.59238   19.03693   -0.60115
       O     8.19882   18.38239   -1.21182
      H1     8.55490   18.73226   -2.03366
       H     8.57866   15.75750   -0.79334
       O     8.16677   15.35650   -1.56682
      H1     7.29617   15.75773   -1.66804
       H     6.05309   16.58659    0.57292
       O     5.76330   17.37749    0.05781
      H1     6.55663   17.86374   -0.13689
       H    11.18395   13.63911   -2.20004
       O    10.93689   12.83995   -1.67115
      H1    11.59098   12.19388   -1.96296
       H     9.48706   16.53479    1.61789
       O     9.27371   15.94869    0.89882
      H1    10.12279   15.54532    0.65824
       H    10.21649   13.53307    1.70311
       O     9.50710   12.89954    1.93764
      H1     9.05540   13.27987    2.70294
       H     9.02417   14.63063    4.69097
       O     9.61837   15.30650    5.04864
      H1     9.29197   15.31952    5.94625
       H     8.97340   15.55895   -3.15642
       O     9.39143   15.91746   -3.94320
      H1     9.77840   15.16326   -4.40634
       H     6.67818   11.40935    1.43024
       O     6.79428   12.12615    0.79840
      H1     7.71026   12.38634    0.88165
       H    12.49391   14.40199    1.11913
       O    11.58456   14.41300    0.82750
      H1    11.48246   13.73757    0.14794

