60
frame 0 | Written by MDAnalysis XYZWriter (release 2.4.3)
       H     7.46795    8.17290    9.38877
       O     8.10312    8.31515    8.63838
      H1     8.89935    8.53419    9.13717
       H     7.95472   10.37501    4.06739
       O     7.83690   11.04904    4.76583
      H1     8.42983   10.73583    5.46492
       H     4.82159    9.12151    5.49498
       O     4.25352    8.68891    4.83197
      H1     3.85670    7.95207    5.32158
       H     6.73768    6.17502    4.21660
       O     7.66229    6.25299    3.88594
      H1     8.18061    6.20312    4.68471
       H     4.99787   10.48188   12.14057
       O     4.95307   10.66603   11.20313
      H1     3.99910   10.79818   11.04127
       H     5.64023    7.51792   11.20592
       O     6.20541    8.08285   10.61189
      H1     5.81308    8.97356   10.64384
       H     6.57973    8.81264    7.70590
       O     5.77284    9.13945    7.29327
      H1     5.16004    8.43482    7.52738
       H     3.04943    6.85433   11.92477
       O     2.45339    6.56671   11.21268
      H1     2.30552    7.34451   10.69205
       H     0.90767    8.25745    8.67021
       O     0.51712    8.09375    9.53385
      H1     1.03910    8.65909   10.13079
       H     2.39152    7.34246    7.35106
       O     2.76853    8.18046    7.70293
      H1     3.49209    7.75622    8.21055
       H     9.12480   10.73932    7.17660
       O     9.35242    9.95476    6.65561
      H1     8.68069    9.34712    6.98156
       H     5.44747    6.48077    7.73694
       O     5.02681    6.57989    8.61836
      H1     5.77241    6.67012    9.24139
       H     3.46602    5.99745    3.62815
       O     3.39792    6.06662    4.58545
      H1     2.52690    5.69658    4.80342
       H     2.55803   10.65038    9.42863
       O     2.36258   10.23300   10.28046
      H1     1.59536   10.75367   10.58037
       H     4.93745    9.78324    3.17574
       O     5.25814   10.41051    2.50407
      H1     4.65177   10.20617    1.74972
       H     0.84537    6.32054    6.67357
       O     1.66206    5.82390    6.81760
      H1     1.50161    5.40457    7.67263
       H     8.84603   11.78594    9.92845
       O     8.52290   10.88524   10.10205
      H1     7.90917   10.72512    9.38715
       H     4.89749   11.93051    6.18229
       O     5.10312   11.89955    7.13774
      H1     5.50942   11.01996    7.27732
       H     2.63255   10.00777    7.66902
       O     2.65505   10.96555    7.57920
      H1     3.58014   11.16339    7.35754
       H     7.58472    5.11513    6.79308
       O     6.63934    5.00251    6.74344
      H1     6.37800    4.18277    7.10540

