60
frame 0 | Written by MDAnalysis XYZWriter (release 2.4.3)
       H   -11.46601  -15.75430   -8.96746
       O   -11.40046  -15.96109   -9.89397
      H1   -12.16465  -16.53383  -10.04908
       H   -13.93701  -14.19407   -5.16903
       O   -13.68010  -14.25021   -6.09786
      H1   -13.85026  -13.36760   -6.47584
       H   -11.46892  -10.65565   -9.86909
       O   -12.16568  -11.15783   -9.40657
      H1   -12.17184  -11.95909   -9.99996
       H   -11.27817  -12.35083   -6.16914
       O   -10.52473  -12.24412   -5.58361
      H1    -9.90660  -11.75294   -6.14790
       H   -10.41957  -17.70489   -4.08490
       O   -10.35637  -18.51654   -4.55091
      H1   -11.01441  -18.45872   -5.25690
       H    -9.51822  -14.17985   -4.23187
       O    -9.63927  -14.24635   -3.27720
      H1   -10.02413  -15.09784   -3.12030
       H   -16.10254  -12.50744   -6.33713
       O   -15.95182  -11.57040   -6.34310
      H1   -16.73959  -11.17631   -6.76624
       H   -10.86499  -18.22133   -7.82941
       O   -10.25163  -18.11449   -8.55667
      H1   -10.55943  -17.33329   -9.05616
       H   -13.89422  -11.19448   -6.78073
       O   -12.92381  -11.20294   -6.79215
      H1   -12.75180  -11.07546   -7.73170
       H   -10.93469  -13.13186   -2.86323
       O   -11.24003  -12.31611   -2.43722
      H1   -11.89650  -12.62478   -1.82016
       H    -8.08921  -10.42900   -6.39841
       O    -8.93402  -10.65114   -6.82667
      H1    -8.73434  -11.44582   -7.33718
       H    -8.50598  -16.07361   -6.29691
       O    -8.43383  -15.26339   -5.79424
      H1    -7.88729  -14.70900   -6.35865
       H   -12.64058  -14.30348  -10.69311
       O   -12.85089  -13.40019  -10.92893
      H1   -13.77279  -13.38425  -10.79496
       H   -14.89647  -15.63205   -6.39948
       O   -15.39336  -16.44728   -6.22234
      H1   -15.28188  -16.97109   -7.05620
       H    -8.71340  -17.23190   -7.97024
       O    -7.87690  -17.25496   -7.46614
      H1    -7.26352  -16.86506   -8.11814
       H   -12.09952  -14.80495   -6.82515
       O   -11.30263  -15.17231   -7.24249
      H1   -10.70012  -15.22569   -6.45065
       H   -14.86397  -14.23561   -3.52215
       O   -13.93277  -14.15790   -3.37144
      H1   -13.59670  -15.04830   -3.16346
       H    -9.88066  -17.03443   -2.15673
       O   -10.52930  -16.50055   -2.62110
      H1   -11.14229  -16.16286   -1.95408
       H    -9.38151  -12.99724   -9.17098
       O    -8.92853  -13.05623   -8.28655
      H1    -9.58752  -13.45634   -7.72986
       H   -14.39528  -18.54695   -3.92013
       O   -14.72674  -18.92095   -4.77249
      H1   -15.13940  -18.14792   -5.19967

