60
frame 0 | Written by MDAnalysis XYZWriter (release 2.4.3)
       H     3.32505   14.90796    8.70746
       O     2.98610   15.81448    8.60478
      H1     2.02217   15.69186    8.62116
       H     0.48109   13.60372    9.13757
       O     1.02986   12.87163    9.47680
      H1     0.41342   12.33397    9.90764
       H     5.23030   13.46938    9.70302
       O     5.20356   14.07828    8.93212
      H1     4.96087   13.49702    8.21265
       H    -1.13753   12.49187    6.49048
       O    -0.68824   11.61628    6.55283
      H1     0.19501   11.90005    6.29809
       H     2.29148   13.32702    5.45667
       O     1.81446   12.50973    5.52250
      H1     2.03166   12.16430    6.40984
       H     4.89793   11.64695    3.67711
       O     4.63688   12.22228    4.41685
      H1     4.02577   12.86458    4.02629
       H     5.60050   14.80369    5.93188
       O     6.55887   14.65912    6.13004
      H1     6.89706   14.15690    5.35884
       H     3.31635   15.38312    6.98537
       O     3.62464   15.14854    6.11216
      H1     3.41020   15.92791    5.60541
       H     2.97463   14.03718    0.80680
       O     2.23421   14.46200    1.25616
      H1     2.03732   13.78539    1.88102
       H    -1.07776   12.13570    2.62758
       O    -1.55362   11.49777    3.14639
      H1    -0.82431   10.90383    3.39958
       H    -0.47625   15.93711    9.36774
       O     0.02518   15.41025    8.69728
      H1    -0.66914   14.79770    8.36066
       H    -2.18081   13.18858    3.84206
       O    -2.65225   14.01720    3.86923
      H1    -2.88533   14.22276    2.94626
       H    -2.63972   14.21928    7.36015
       O    -1.74070   13.92642    7.21059
      H1    -1.36060   14.55625    6.58154
       H     2.36433   11.45727    2.10394
       O     1.72547   12.03408    2.61495
      H1     1.93327   11.80868    3.53034
       H     0.98037    9.47621    3.57050
       O     0.23433    9.66120    4.17498
      H1     0.56852   10.25363    4.79984
       H    -1.26245   14.83501    4.63752
       O    -0.43987   15.08048    5.06576
      H1     0.05234   15.37800    4.27505
       H     0.75058   16.63013    2.27370
       O     0.94144   16.59792    3.21465
      H1     0.33251   17.20853    3.64036
       H     4.89749   11.93051    6.18229
       O     5.10312   11.89955    7.13774
      H1     5.50942   11.01996    7.27732
       H     2.76578   18.01070    5.23660
       O     3.06519   17.43128    4.51612
      H1     2.31792   17.35376    3.92889
       H     2.63255   10.00777    7.66902
       O     2.65505   10.96555    7.57920
      H1     3.58014   11.16339    7.35754

