60
frame 0 | Written by MDAnalysis XYZWriter (release 2.4.3)
       H     2.89002   16.17861  -17.60177
       O     2.75297   16.24058  -18.55688
      H1     2.72298   17.18439  -18.73013
       H    11.72588   13.00374  -17.56027
       O    12.18929   13.53120  -18.20787
      H1    11.49756   14.18970  -18.42888
       H     8.27101   13.75903  -15.14420
       O     9.00593   14.13006  -14.62056
      H1     9.09592   13.39561  -14.02434
       H     7.24247   19.16136  -13.47683
       O     6.86073   18.79983  -14.29542
      H1     5.92089   18.67577  -14.12750
       H     3.05566   19.40298  -17.76678
       O     2.19885   18.96424  -17.84390
      H1     2.09353   18.50905  -17.01216
       H     3.20178   14.31356  -13.38631
       O     3.10255   13.89815  -14.24245
      H1     4.03840   13.81177  -14.46107
       H    11.32752   17.23139  -15.75261
       O    10.80860   16.86980  -16.48627
      H1     9.88901   16.96954  -16.18687
       H     8.35506   12.20988  -17.99666
       O     8.72145   11.49659  -17.46794
      H1     9.15555   10.93348  -18.14720
       H    12.06729   17.55589  -17.60177
       O    12.71670   17.96219  -18.21011
      H1    12.64690   18.93901  -18.07786
       H     1.47660   12.61332  -17.96044
       O     2.06906   12.22172  -18.60667
      H1     2.92925   12.65189  -18.45833
       H     5.67051   11.48990  -16.26137
       O     6.51566   11.80814  -15.87018
      H1     7.15023   11.66872  -16.58125
       H     6.20705   13.44151  -11.84906
       O     6.82187   14.17133  -11.74723
      H1     7.67370   13.75893  -11.71124
       H     9.07124   15.68600  -13.34832
       O     9.31477   16.26249  -12.57222
      H1     9.61874   15.59813  -11.96736
       H    11.25361   14.77967  -15.19919
       O    12.05313   14.53092  -14.72960
      H1    12.07646   13.56396  -14.66415
       H     6.28335   16.53305  -18.36099
       O     6.58256   15.84239  -17.77419
      H1     6.95407   16.35409  -17.03044
       H     4.88209   11.50126  -18.62172
       O     4.96247   12.43037  -18.57700
      H1     5.89959   12.52417  -18.36285
       H     6.29491   14.15424  -13.60117
       O     5.93914   14.13317  -14.50041
      H1     6.23585   13.30223  -14.89064
       H     7.51176   17.55672  -15.14229
       O     8.01102   16.93321  -15.70376
      H1     8.22144   16.17481  -15.15059
       H     4.27975   18.04013  -12.59618
       O     4.32775   18.78006  -13.20208
      H1     4.53508   19.51232  -12.62600
       H     4.43422   15.85011  -15.85158
       O     3.51180   16.18150  -15.96469
      H1     2.98098   15.63108  -15.35142

