60
frame 0 | Written by MDAnalysis XYZWriter (release 2.4.3)
       H    -0.88114   -4.34018   10.53802
       O    -0.17554   -4.19551   11.19336
      H1    -0.68145   -4.21926   11.99665
       H     2.47010   -8.30418   13.63955
       O     2.54900   -7.36300   13.87511
      H1     2.21497   -7.32458   14.79185
       H    -3.76597   -2.52527   12.79516
       O    -3.11424   -1.88143   12.55357
      H1    -2.52071   -1.78882   13.31276
       H    -1.27662   -7.11082   17.39501
       O    -1.63569   -7.52536   16.62111
      H1    -1.52282   -8.44414   16.81078
       H     1.01257   -6.00700   16.80043
       O     0.75754   -5.85523   15.88572
      H1    -0.06151   -6.35452   15.82114
       H    -4.72365   -6.75966   11.56401
       O    -5.38714   -6.35815   12.16122
      H1    -6.24634   -6.39901   11.72028
       H    -3.32082   -3.73438   10.11992
       O    -2.51025   -4.12130    9.77167
      H1    -1.89492   -3.39314    9.61255
       H     1.11867   -4.54964   14.93269
       O     1.11024   -3.82821   14.29100
      H1     1.03969   -3.07706   14.86640
       H    -4.59188   -7.38967   14.71072
       O    -5.37432   -7.80960   15.10852
      H1    -6.00805   -7.08340   15.10193
       H     0.57965   -5.86628   11.59956
       O     1.08752   -6.67951   11.56330
      H1     1.49151   -6.75220   12.42986
       H    -1.46569   -5.16290   13.83006
       O    -1.39578   -4.29048   13.45446
      H1    -0.56623   -3.94772   13.77951
       H     2.50995   -3.84434   13.21491
       O     3.14840   -3.45764   12.59768
      H1     3.12744   -4.08558   11.86549
       H    -0.55644   -1.53910   15.15150
       O    -1.07340   -1.44878   14.33931
      H1    -0.63993   -0.77619   13.83199
       H    -3.22469   -2.72528   15.52579
       O    -3.17342   -3.66451   15.37592
      H1    -2.49385   -3.74512   14.69090
       H    -3.16721   -4.75967   16.94123
       O    -3.50275   -5.12556   17.77856
      H1    -2.89489   -4.80435   18.45565
       H    -3.13991   -9.71199   12.82614
       O    -2.52976   -8.98629   12.71458
      H1    -2.73590   -8.60038   11.88287
       H    -4.61795   -4.85786   12.82552
       O    -4.79642   -4.06490   13.36783
      H1    -4.31374   -4.19603   14.20724
       H    -3.10583   -7.21165    9.72118
       O    -3.39774   -7.68299   10.48320
      H1    -3.97573   -8.33602   10.06575
       H     0.71136   -2.40953   10.89418
       O     1.03054   -1.50347   10.69490
      H1     1.88023   -1.66317   10.25578
       H    -2.93856   -7.56013   13.83325
       O    -2.95808   -6.74504   14.31233
      H1    -2.70824   -6.97314   15.25101

