60
frame 1 | Written by MDAnalysis XYZWriter (release 2.4.3)
       H   -12.30255  -11.41097   15.24489
       O   -11.61200  -10.74445   15.47233
      H1   -10.96612  -11.30575   15.91807
       H   -15.88766   -5.52891   16.21063
       O   -15.13892   -5.22122   15.66260
      H1   -15.47094   -5.42034   14.76052
       H   -16.56429  -12.31497   15.40887
       O   -17.15969  -13.07876   15.48526
      H1   -17.42277  -13.22622   14.55007
       H   -12.99789   -7.41582   12.35268
       O   -12.53919   -8.11493   11.83190
      H1   -11.68479   -8.06581   12.26720
       H   -11.60012   -8.77090   15.38018
       O   -11.96665   -7.93063   15.06349
      H1   -11.51414   -7.22628   15.57131
       H   -12.04027   -9.79729   17.58953
       O   -11.50833   -9.56956   18.35002
      H1   -11.78688  -10.23802   18.97714
       H   -16.98908   -6.97494   18.34639
       O   -16.80887   -6.64918   17.45524
      H1   -17.05274   -7.43165   16.93959
       H   -11.69998   -6.51672   18.02884
       O   -11.32010   -6.09294   17.27583
      H1   -10.37310   -6.00933   17.52343
       H   -13.99501   -8.71297   18.51732
       O   -14.70630   -9.34530   18.42880
      H1   -14.82067   -9.72433   19.29692
       H   -12.04704   -4.60909   14.02615
       O   -12.22557   -4.74983   13.09500
      H1   -13.08768   -4.39977   12.95853
       H   -15.14612   -3.27855   12.73352
       O   -14.95381   -4.12464   13.07043
      H1   -15.17490   -4.71642   12.34391
       H   -16.01726  -10.62036   14.15104
       O   -16.65230  -10.53605   13.40777
      H1   -16.09050  -10.69772   12.65098
       H   -10.86579   -7.18408   13.65056
       O   -10.35505   -6.72168   12.96409
      H1   -10.84014   -5.91345   12.81120
       H   -16.77173   -7.41144   12.71991
       O   -15.84913   -7.20779   12.97582
      H1   -15.61809   -7.86909   13.62607
       H   -17.92426   -5.91471   15.88959
       O   -18.08347   -5.53058   15.01824
      H1   -18.32875   -6.27553   14.47572
       H   -13.52614   -4.32086   15.89591
       O   -12.56841   -4.19013   15.83644
      H1   -12.23430   -4.73310   16.56112
       H   -14.46429  -11.62044   15.94056
       O   -15.30971  -11.15739   15.99777
      H1   -15.06991  -10.51618   16.68284
       H   -18.75954   -9.33569   16.55615
       O   -18.58660   -8.87399   15.72068
      H1   -18.90802   -9.51503   15.09556
       H   -13.37597   -9.72976   12.47712
       O   -13.51508  -10.53813   13.04687
      H1   -13.81110  -10.09153   13.85063
       H   -14.84651   -7.27566   15.67591
       O   -14.49733   -8.12944   15.31400
      H1   -13.57428   -7.94162   15.22901

