60
frame 0 | Written by MDAnalysis XYZWriter (release 2.4.3)
       H   -11.46601  -15.75430   -8.96746
       O   -11.40046  -15.96109   -9.89397
      H1   -12.16465  -16.53383  -10.04908
       H    -6.23201  -12.81145  -11.52311
       O    -6.91169  -12.10823  -11.41058
      H1    -6.82073  -11.78075  -10.51355
       H    -9.97704  -15.23147  -17.02179
       O   -10.64812  -14.95021  -16.39721
      H1   -10.43849  -15.39846  -15.57871
       H    -7.12051  -18.28812  -15.20791
       O    -7.26915  -17.37979  -15.49400
      H1    -6.45325  -16.89447  -15.42952
       H    -6.56497  -15.66089   -9.50926
       O    -6.54670  -16.59856   -9.75535
      H1    -6.97692  -16.56781  -10.62069
       H   -10.19832  -15.29140  -11.26140
       O   -10.03885  -14.91688  -12.12992
      H1    -9.10625  -15.07991  -12.32812
       H    -5.81718  -16.38906  -12.65557
       O    -4.89443  -16.20179  -12.88687
      H1    -4.50348  -17.09849  -12.99374
       H    -5.93675  -13.80389   -7.61771
       O    -6.55355  -14.41886   -8.05960
      H1    -7.00318  -13.77407   -8.57211
       H   -10.86499  -18.22133   -7.82941
       O   -10.25163  -18.11449   -8.55667
      H1   -10.55943  -17.33329   -9.05616
       H   -10.54315  -15.77146  -13.49656
       O   -10.82298  -16.38795  -14.17586
      H1   -10.51132  -17.24738  -13.76484
       H    -9.89754  -13.27623  -11.41780
       O    -9.62449  -12.59026  -10.78216
      H1    -8.73810  -12.42535  -11.10886
       H    -7.42948  -17.52234  -12.50183
       O    -7.57064  -16.57220  -12.28265
      H1    -7.72103  -16.12422  -13.10903
       H   -12.64058  -14.30348  -10.69311
       O   -12.85089  -13.40019  -10.92893
      H1   -13.77279  -13.38425  -10.79496
       H    -8.35091  -13.80140  -13.76707
       O    -7.80554  -14.58501  -13.80336
      H1    -7.52790  -14.56848  -14.73561
       H   -13.11143  -16.91321  -12.46941
       O   -12.75032  -17.44126  -11.74536
      H1   -13.13584  -18.31070  -11.86579
       H    -4.63589  -14.74715  -12.04027
       O    -4.53233  -13.80665  -11.83841
      H1    -4.36344  -13.33432  -12.70438
       H    -9.38151  -12.99724   -9.17098
       O    -8.92853  -13.05623   -8.28655
      H1    -9.58752  -13.45634   -7.72986
       H   -12.15100  -12.61244  -12.22991
       O   -11.85698  -12.12078  -12.97992
      H1   -12.16794  -11.20728  -12.79207
       H   -13.67001  -15.55058  -14.03608
       O   -13.47598  -16.46432  -14.07442
      H1   -12.54862  -16.49070  -13.84159
       H    -9.29132  -11.41591  -13.29912
       O    -9.37016  -11.87219  -14.13238
      H1   -10.31753  -11.78922  -14.35936

