60
frame 0 | Written by MDAnalysis XYZWriter (release 2.4.3)
       H   -15.42757    4.15673    4.42526
       O   -15.76401    4.92683    4.94524
      H1   -16.59841    4.66169    5.36238
       H   -12.87995    4.51979    9.42645
       O   -13.39132    4.06800    8.73932
      H1   -13.21268    4.66089    8.00632
       H   -13.65602    2.58304    4.06116
       O   -14.01085    3.24486    3.44948
      H1   -13.44395    3.13408    2.69561
       H   -15.83997    0.48608    6.75127
       O   -15.77822    1.42577    6.51093
      H1   -14.81218    1.50770    6.56071
       H   -12.56029    4.61957    6.10527
       O   -13.24151    5.22610    6.28971
      H1   -13.92561    4.92959    5.69286
       H   -14.92374    6.36929    3.68847
       O   -15.11909    6.78272    2.85585
      H1   -15.79280    6.22404    2.50198
       H   -11.67155    1.72237    5.01898
       O   -12.09953    1.11464    4.40358
      H1   -12.39901    0.41556    4.97326
       H   -10.62574    3.79422    5.36864
       O   -11.17084    3.27264    5.95556
      H1   -10.65646    3.12160    6.76342
       H   -14.90022    0.68383    2.92841
       O   -14.18309    0.12509    2.60389
      H1   -13.38072    0.62996    2.79429
       H   -12.52777    7.88378    3.24436
       O   -11.66384    7.46184    3.00916
      H1   -11.93099    6.70535    2.49142
       H   -14.10419   -0.65404    1.14915
       O   -14.01494   -1.26980    0.42481
      H1   -14.00307   -0.69340   -0.35734
       H   -12.73074    2.15672    7.17862
       O   -12.80440    1.21043    7.35790
      H1   -12.78082    1.21754    8.31425
       H   -10.00931    4.24096    1.53705
       O    -9.06824    4.15952    1.41732
      H1    -8.72604    4.55390    2.23146
       H    -9.09981    2.35083    2.80902
       O    -8.69969    1.49711    3.06281
      H1    -7.99201    1.36405    2.43118
       H   -15.53046    3.06255    1.23487
       O   -15.64045    2.79458    0.31470
      H1   -16.41567    2.18571    0.38834
       H   -11.07655    1.32918    2.23938
       O   -11.70846    1.52866    1.53248
      H1   -11.59217    0.79338    0.93883
       H   -12.08581    3.36846    1.42050
       O   -11.94230    4.31978    1.63899
      H1   -12.19643    4.76664    0.81677
       H   -13.02905   -1.35196    4.68440
       O   -13.65782   -0.93688    5.27997
      H1   -14.19325   -0.37870    4.71800
       H    -9.46480    5.52854    4.33041
       O    -9.38600    4.55657    4.45855
      H1    -8.58770    4.50849    5.05700
       H   -16.17046    1.64953    4.69972
       O   -16.24343    1.46753    3.75159
      H1   -17.14838    1.16089    3.71269

