60
frame 0 | Written by MDAnalysis XYZWriter (release 2.4.3)
       H    -6.23201  -12.81145  -11.52311
       O    -6.91169  -12.10823  -11.41058
      H1    -6.82073  -11.78075  -10.51355
       H    -7.12051  -18.28812  -15.20791
       O    -7.26915  -17.37979  -15.49400
      H1    -6.45325  -16.89447  -15.42952
       H    -4.99115  -17.34199   -9.39995
       O    -4.10039  -17.51847   -9.00856
      H1    -3.58719  -16.73229   -9.10911
       H    -6.56497  -15.66089   -9.50926
       O    -6.54670  -16.59856   -9.75535
      H1    -6.97692  -16.56781  -10.62069
       H    -6.08357  -17.88909  -17.86367
       O    -5.15456  -17.69462  -17.57374
      H1    -5.31371  -16.89694  -17.02591
       H    -1.24430  -16.78237  -11.73659
       O    -1.08628  -16.52368  -12.65244
      H1    -1.14873  -17.29225  -13.20787
       H    -7.97341  -15.83188  -18.21091
       O    -8.60365  -16.17339  -17.56662
      H1    -8.07076  -16.66053  -16.93405
       H   -10.19832  -15.29140  -11.26140
       O   -10.03885  -14.91688  -12.12992
      H1    -9.10625  -15.07991  -12.32812
       H    -5.81718  -16.38906  -12.65557
       O    -4.89443  -16.20179  -12.88687
      H1    -4.50348  -17.09849  -12.99374
       H    -5.93675  -13.80389   -7.61771
       O    -6.55355  -14.41886   -8.05960
      H1    -7.00318  -13.77407   -8.57211
       H    -1.93545  -15.17049  -13.92209
       O    -2.28975  -14.81989  -14.77190
      H1    -2.50191  -15.64086  -15.22464
       H   -10.54315  -15.77146  -13.49656
       O   -10.82298  -16.38795  -14.17586
      H1   -10.51132  -17.24738  -13.76484
       H    -1.15572  -13.09224  -10.13344
       O    -1.63392  -13.08174  -10.97428
      H1    -2.46861  -13.51734  -10.76851
       H    -3.23720  -11.46638  -14.14064
       O    -4.14897  -11.78941  -14.16491
      H1    -4.58060  -11.23949  -14.86378
       H    -7.42948  -17.52234  -12.50183
       O    -7.57064  -16.57220  -12.28265
      H1    -7.72103  -16.12422  -13.10903
       H    -8.35091  -13.80140  -13.76707
       O    -7.80554  -14.58501  -13.80336
      H1    -7.52790  -14.56848  -14.73561
       H    -8.71340  -17.23190   -7.97024
       O    -7.87690  -17.25496   -7.46614
      H1    -7.26352  -16.86506   -8.11814
       H    -5.28421  -15.52459  -14.77228
       O    -5.43151  -15.44637  -15.73799
      H1    -5.08062  -14.56347  -15.98248
       H    -2.55615  -18.42586  -12.36491
       O    -3.32923  -18.33556  -12.94830
      H1    -3.02483  -18.78232  -13.73866
       H    -4.63589  -14.74715  -12.04027
       O    -4.53233  -13.80665  -11.83841
      H1    -4.36344  -13.33432  -12.70438

