60
frame 1 | Written by MDAnalysis XYZWriter (release 2.4.3)
       H    14.61895    4.81945   13.03313
       O    14.21856    4.02997   12.60319
      H1    13.72268    4.42226   11.88082
       H    14.55413    2.42680   11.35718
       O    15.11974    1.85871   10.80074
      H1    15.97526    2.23846   11.06025
       H    16.18964   -1.23595   10.18975
       O    16.25484   -0.83117    9.33960
      H1    17.09927   -0.40884    9.36753
       H     9.44917    1.02479   13.09795
       O    10.31711    1.30711   13.41044
      H1    10.13136    2.24267   13.62998
       H    13.34144    1.08121   18.06185
       O    14.18560    1.50393   17.82390
      H1    14.20589    1.40343   16.84647
       H    14.11182    2.59152   15.10579
       O    15.00864    2.30372   15.17489
      H1    15.38095    2.63732   14.35321
       H    11.56950    1.09552   12.29494
       O    12.24529    1.17524   11.61828
      H1    12.86810    0.46859   11.87362
       H    18.86157   -0.07218   11.86846
       O    18.03303   -0.08068   12.35943
      H1    17.70270   -0.97073   12.18060
       H    11.82640    1.17457    9.84115
       O    11.78739    1.55812    8.95096
      H1    12.65158    1.40208    8.55573
       H    16.73008    0.13026   15.19059
       O    17.62785    0.18422   15.44987
      H1    18.12515   -0.08624   14.66407
       H    11.89579   -2.07776    9.51949
       O    12.61479   -2.55528    9.08631
      H1    13.26808   -2.67558    9.80637
       H    14.30833   -3.60070   11.72352
       O    13.73640   -2.87843   11.52174
      H1    14.13715   -2.11049   11.94872
       H    13.30179   -3.63369   15.37994
       O    14.09279   -3.98584   15.78773
      H1    13.76978   -4.57207   16.48155
       H    12.97804    3.15926   13.75466
       O    12.43606    2.75983   14.43317
      H1    12.02515    2.00522   14.00269
       H    14.30957    0.28286    7.48403
       O    14.33922    1.07774    8.01806
      H1    14.82321    0.76643    8.79675
       H    12.30375   -3.27729   12.53740
       O    11.59630   -3.62812   13.09667
      H1    10.74200   -3.31424   12.72529
       H    17.24408   -3.13100   12.17499
       O    16.91432   -2.62875   11.41335
      H1    16.48298   -3.27138   10.82429
       H    18.31391    3.00512   11.71290
       O    17.68030    2.47367   11.23818
      H1    17.67814    1.66618   11.77996
       H    15.18615   -1.50344   15.46928
       O    14.72457   -0.73349   15.14458
      H1    13.85084   -0.79504   15.57174
       H    14.87476    0.32280   12.23296
       O    14.40161   -0.45863   12.59988
      H1    14.53519   -0.38377   13.54720

