60
frame 1 | Written by MDAnalysis XYZWriter (release 2.4.3)
       H   -11.33789    3.64111   12.97062
       O   -11.79535    4.48241   12.82438
      H1   -12.50554    4.57490   13.49648
       H   -10.21198    9.59566   17.47514
       O    -9.40829    9.86922   16.97066
      H1    -9.56990   10.82933   16.79977
       H   -12.31898    8.19911   17.47613
       O   -11.87258    8.90067   17.97459
      H1   -12.15798    8.71082   18.87545
       H    -9.41217    9.23069   13.45700
       O    -8.74473    8.71299   12.95802
      H1    -8.69330    7.92111   13.47991
       H   -11.10344    2.03684   16.54993
       O   -11.71085    1.80704   15.83082
      H1   -12.27812    1.09274   16.13705
       H    -9.50114    4.39549   18.16686
       O    -9.25901    3.94170   18.98231
      H1    -9.29119    3.02504   18.71916
       H   -10.14671    9.86763   15.30705
       O   -10.77395    9.79634   14.59486
      H1   -11.44409    9.17868   14.95128
       H    -6.65894    1.86750   15.44044
       O    -6.58382    2.81268   15.61731
      H1    -5.78759    3.11677   15.14859
       H    -8.66316    5.50711   13.92962
       O    -8.96644    6.33500   14.31598
      H1    -8.26111    6.52132   14.96466
       H   -14.48717    4.89809   14.66950
       O   -13.64264    4.49180   14.88716
      H1   -13.84454    3.55970   15.05401
       H    -9.95691    0.82476   18.23131
       O    -9.69942    1.59903   17.69316
      H1    -8.75445    1.49431   17.50826
       H   -12.33808    6.95731   15.50560
       O   -12.82873    7.75333   15.24982
      H1   -12.77927    7.71129   14.27623
       H    -9.89970    5.43272   15.72573
       O    -9.72258    5.33314   16.68050
      H1    -9.10684    6.05368   16.83968
       H    -8.48291    8.47450   16.92228
       O    -8.01588    7.65138   16.69942
      H1    -7.69753    7.37160   17.56917
       H   -11.47380    5.41833   16.93311
       O   -12.29340    5.90217   17.10226
      H1   -12.96447    5.34881   16.68256
       H   -11.74757    6.23698   12.99801
       O   -11.66437    7.18257   12.77547
      H1   -10.69650    7.36067   12.88209
       H    -9.04090    8.34485   10.26120
       O    -8.59355    7.55586   10.62400
      H1    -8.90112    7.53889   11.52928
       H    -7.84344    2.18840   13.48624
       O    -8.02487    1.23793   13.35015
      H1    -7.70689    1.07153   12.44984
       H    -7.22285    4.23728   12.70777
       O    -7.83000    4.13055   13.45196
      H1    -7.28412    3.81799   14.18607
       H   -11.03154    2.06835   14.06411
       O   -10.89603    1.99297   13.11369
      H1    -9.94427    1.80163   13.10661

