60
frame 1 | Written by MDAnalysis XYZWriter (release 2.4.3)
       H    -0.79701   -6.39243    3.67599
       O    -1.51886   -6.87132    4.12781
      H1    -1.55372   -7.70017    3.64782
       H    -5.96538   -9.03251    9.36943
       O    -5.07253   -9.10324    9.77116
      H1    -4.69322   -8.23089    9.60659
       H    -3.39972  -10.83579    4.63221
       O    -3.43530  -11.36502    3.81200
      H1    -2.77384  -10.88923    3.26370
       H    -3.02184   -9.19186    6.74091
       O    -2.81968  -10.12273    6.55001
      H1    -3.36599  -10.60939    7.17791
       H    -1.56032   -6.70171    7.22548
       O    -2.14512   -7.37574    6.83081
      H1    -2.03029   -7.16285    5.91442
       H    -5.82193   -9.01777    2.92796
       O    -5.08056   -8.65427    2.44084
      H1    -4.43303   -8.43406    3.10196
       H    -3.23586   -9.33020   11.83086
       O    -2.27361   -9.52280   11.85179
      H1    -1.98382   -9.28555   10.95715
       H    -3.36354   -6.75291    4.14014
       O    -4.32006   -6.78301    4.28677
      H1    -4.44353   -7.30256    5.10018
       H     1.05253   -9.02537    6.81868
       O     1.90631   -8.63182    6.59510
      H1     1.81988   -8.32812    5.66691
       H     0.96766  -10.56334    3.57349
       O     0.32435  -10.87604    4.19650
      H1     0.69876  -10.64361    5.05335
       H    -6.01296   -7.82669    6.95362
       O    -5.41083   -8.43294    6.47846
      H1    -5.82417   -9.28110    6.58500
       H    -3.42531   -5.09884    6.83028
       O    -3.79821   -4.23038    7.02742
      H1    -4.34576   -4.43183    7.80208
       H    -1.15361  -13.18457    6.91373
       O    -0.29677  -12.91243    7.26122
      H1     0.32532  -12.82330    6.52561
       H    -4.18135  -10.96741    9.30360
       O    -4.14469  -11.80090    8.79534
      H1    -5.04846  -11.95895    8.53674
       H    -1.47186   -9.67014    2.06368
       O    -1.69113   -9.46937    3.00117
      H1    -0.94639   -9.83596    3.54430
       H    -5.81193  -11.78054    5.52267
       O    -5.92149  -12.05120    6.43178
      H1    -6.84404  -12.23098    6.61175
       H    -2.78744   -6.38144    9.29844
       O    -2.97502   -7.32432    9.42764
      H1    -2.72232   -7.75748    8.59700
       H    -1.11268  -10.19830    6.92429
       O    -0.22189  -10.11721    7.31769
      H1     0.07853  -11.02993    7.30943
       H    -0.31322   -9.63739    8.99985
       O    -0.16237   -9.27938    9.88139
      H1     0.66389   -8.78505    9.79099
       H    -6.77716  -11.08009    3.38778
       O    -5.99790  -10.83920    3.93453
      H1    -5.21970  -11.07792    3.42513

