60
frame 1 | Written by MDAnalysis XYZWriter (release 2.4.3)
       H   -14.88932  -15.33669    9.91205
       O   -15.24226  -14.45910    9.91712
      H1   -16.13510  -14.57875    9.60290
       H   -13.94267   -6.69585    8.97763
       O   -13.96046   -5.76481    8.93038
      H1   -13.89315   -5.55382    8.00219
       H   -18.70588  -12.80037   11.39382
       O   -18.72077  -12.28151   10.58270
      H1   -18.54671  -11.38504   10.94412
       H   -12.99789   -7.41582   12.35268
       O   -12.53919   -8.11493   11.83190
      H1   -11.68479   -8.06581   12.26720
       H   -19.30869   -8.93384    9.45979
       O   -19.14801   -9.12951   10.38671
      H1   -18.30148   -8.74878   10.50958
       H   -10.92144  -10.35500    9.83336
       O   -11.75661  -10.55819   10.26301
      H1   -11.47706  -11.14961   10.96333
       H   -17.75089  -13.30750    9.14657
       O   -17.45554  -13.95936    8.51853
      H1   -18.04608  -14.68869    8.68396
       H   -19.22653   -6.53768   12.26253
       O   -18.62003   -6.93416   12.88240
      H1   -19.15720   -7.61738   13.24973
       H   -14.11310   -8.63924    6.75658
       O   -13.97031   -9.53748    7.09693
      H1   -14.82006   -9.94604    7.04126
       H   -14.38001  -13.90614   11.72363
       O   -13.92017  -13.97393   12.57718
      H1   -13.35540  -14.76299   12.48150
       H   -17.34823   -9.64901    7.39117
       O   -17.07475  -10.34349    7.99998
      H1   -17.74142  -11.01732    7.85345
       H   -17.51078  -14.30948   12.79697
       O   -18.17569  -13.62395   12.96470
      H1   -18.83724  -14.10193   13.43975
       H   -13.88225   -8.93538    9.03131
       O   -14.17895   -8.33872    9.74390
      H1   -13.57095   -8.47866   10.47603
       H   -16.01726  -10.62036   14.15104
       O   -16.65230  -10.53605   13.40777
      H1   -16.09050  -10.69772   12.65098
       H   -16.77173   -7.41144   12.71991
       O   -15.84913   -7.20779   12.97582
      H1   -15.61809   -7.86909   13.62607
       H   -15.38635   -5.85854   10.40750
       O   -16.03946   -5.25128   10.80849
      H1   -16.33909   -5.74127   11.56210
       H   -15.37630   -9.52472   10.15204
       O   -16.15948   -9.94277   10.56046
      H1   -16.62129  -10.34865    9.78894
       H   -12.77990  -13.07879    8.28369
       O   -11.98613  -12.98752    8.86895
      H1   -12.03687  -12.07171    9.19381
       H   -17.28144   -5.12066    9.69749
       O   -17.97514   -5.39744    9.09446
      H1   -18.13138   -4.61958    8.54077
       H   -13.37597   -9.72976   12.47712
       O   -13.51508  -10.53813   13.04687
      H1   -13.81110  -10.09153   13.85063

