60
frame 1 | Written by MDAnalysis XYZWriter (release 2.4.3)
       H   -15.88766   -5.52891   16.21063
       O   -15.13892   -5.22122   15.66260
      H1   -15.47094   -5.42034   14.76052
       H   -13.85977   -0.97319   15.86969
       O   -13.04180   -0.44888   15.99202
      H1   -12.37962   -1.12159   16.16926
       H   -16.25681   -5.10454   18.58166
       O   -16.46116   -4.34743   19.11613
      H1   -16.91199   -3.78371   18.47388
       H   -11.41735   -3.21148   12.48090
       O   -10.98478   -2.47197   12.05389
      H1   -11.15695   -2.60329   11.08034
       H   -16.98047   -2.50650   16.53089
       O   -17.78075   -2.52928   17.07315
      H1   -18.44263   -2.09673   16.55063
       H   -12.34265   -1.41642   12.78591
       O   -13.00962   -0.78677   13.05093
      H1   -12.80433   -0.57300   13.97158
       H   -11.60012   -8.77090   15.38018
       O   -11.96665   -7.93063   15.06349
      H1   -11.51414   -7.22628   15.57131
       H   -12.90636   -1.57519   18.90587
       O   -13.66941   -2.10315   18.59821
      H1   -13.50050   -2.98841   18.98273
       H    -9.27073   -4.73529   13.99222
       O    -9.66688   -4.52169   14.82539
      H1    -9.31341   -5.20123   15.42306
       H   -16.98908   -6.97494   18.34639
       O   -16.80887   -6.64918   17.45524
      H1   -17.05274   -7.43165   16.93959
       H   -11.69998   -6.51672   18.02884
       O   -11.32010   -6.09294   17.27583
      H1   -10.37310   -6.00933   17.52343
       H   -14.80482   -2.62119   17.19771
       O   -15.27072   -2.37360   16.35752
      H1   -15.16911   -3.17250   15.85237
       H   -10.72595   -1.52032   15.56793
       O   -10.79965   -1.96806   16.38562
      H1   -11.20677   -2.83904   16.19539
       H   -12.04704   -4.60909   14.02615
       O   -12.22557   -4.74983   13.09500
      H1   -13.08768   -4.39977   12.95853
       H   -15.14612   -3.27855   12.73352
       O   -14.95381   -4.12464   13.07043
      H1   -15.17490   -4.71642   12.34391
       H   -10.86579   -7.18408   13.65056
       O   -10.35505   -6.72168   12.96409
      H1   -10.84014   -5.91345   12.81120
       H   -16.77173   -7.41144   12.71991
       O   -15.84913   -7.20779   12.97582
      H1   -15.61809   -7.86909   13.62607
       H   -17.92426   -5.91471   15.88959
       O   -18.08347   -5.53058   15.01824
      H1   -18.32875   -6.27553   14.47572
       H   -13.52614   -4.32086   15.89591
       O   -12.56841   -4.19013   15.83644
      H1   -12.23430   -4.73310   16.56112
       H   -14.84651   -7.27566   15.67591
       O   -14.49733   -8.12944   15.31400
      H1   -13.57428   -7.94162   15.22901

