60
frame 1 | Written by MDAnalysis XYZWriter (release 2.4.3)
       H    14.61895    4.81945   13.03313
       O    14.21856    4.02997   12.60319
      H1    13.72268    4.42226   11.88082
       H    14.55413    2.42680   11.35718
       O    15.11974    1.85871   10.80074
      H1    15.97526    2.23846   11.06025
       H    12.22069    3.35977    4.98774
       O    11.45058    3.94402    4.87130
      H1    11.66364    4.73707    5.36720
       H     9.60490    3.75108   10.34791
       O    10.31599    3.80512    9.69600
      H1    10.40288    2.88625    9.37112
       H    14.44766    5.58570    7.51460
       O    13.84125    6.02654    8.11850
      H1    13.44094    5.31677    8.65719
       H     8.47469    0.06389    9.92891
       O     8.10336    0.79779    9.43950
      H1     7.13208    0.62885    9.48956
       H    11.56950    1.09552   12.29494
       O    12.24529    1.17524   11.61828
      H1    12.86810    0.46859   11.87362
       H    11.82640    1.17457    9.84115
       O    11.78739    1.55812    8.95096
      H1    12.65158    1.40208    8.55573
       H     7.34685    2.96230   11.41662
       O     8.31615    3.01241   11.37529
      H1     8.53498    2.29809   10.75675
       H    12.52905    0.68479    4.57395
       O    11.73972    0.80921    4.01948
      H1    11.10042    1.33335    4.51719
       H    11.89579   -2.07776    9.51949
       O    12.61479   -2.55528    9.08631
      H1    13.26808   -2.67558    9.80637
       H    14.30957    0.28286    7.48403
       O    14.33922    1.07774    8.01806
      H1    14.82321    0.76643    8.79675
       H    13.43294    3.23094    9.20272
       O    13.20577    3.97914    9.78970
      H1    12.44458    3.64382   10.29857
       H    13.17126   -0.58970    6.04659
       O    13.89946   -0.08303    5.66076
      H1    14.50506   -0.66184    5.16108
       H     8.67927   -0.59599    6.22976
       O     9.37106   -0.01233    6.62533
      H1     8.90434    0.32795    7.40753
       H    11.06756   -0.83236    6.91604
       O    11.76342   -1.45073    6.62080
      H1    12.29457   -1.52714    7.45639
       H    14.35723    3.37950    5.26958
       O    13.79639    2.68831    4.82932
      H1    13.90993    1.96069    5.43496
       H    10.04903    2.87548    5.63937
       O     9.34588    2.36621    5.23678
      H1     9.42028    1.49690    5.73656
       H     9.90280   -1.77386   10.39802
       O    10.08729   -1.43804    9.50598
      H1     9.70568   -2.15400    8.96153
       H     8.57849    6.48657    8.47071
       O     8.48151    5.62925    8.03867
      H1     9.18505    5.15634    8.44573

