60
frame 1 | Written by MDAnalysis XYZWriter (release 2.4.3)
       H    -3.62664   -2.83756  -16.73521
       O    -3.46517   -3.14631  -15.81572
      H1    -4.31327   -3.38701  -15.45790
       H    -0.46736   -2.77258  -14.34171
       O    -0.42300   -1.92394  -13.90778
      H1    -0.60644   -2.10021  -12.94510
       H     0.06004   -2.64683  -16.92569
       O     0.98483   -2.36088  -16.94445
      H1     1.46678   -3.12600  -17.32782
       H    -4.37493    2.05380  -15.48004
       O    -4.07487    2.43423  -16.32870
      H1    -3.34887    3.00541  -16.04789
       H    -3.33066   -1.83477  -14.72200
       O    -2.95941   -1.01635  -14.39680
      H1    -2.06999   -1.21555  -14.07578
       H    -6.93527    0.24366  -14.25421
       O    -6.65727    0.41482  -13.33833
      H1    -6.24650   -0.43500  -13.01832
       H     0.84270   -0.37023  -15.94756
       O     1.17848    0.37806  -15.41812
      H1     1.14518    1.12571  -16.06139
       H    -3.65296   -1.15260  -18.80996
       O    -3.74429   -1.37948  -17.89413
      H1    -3.03553   -0.93845  -17.41912
       H    -2.82066   -6.43316  -13.63300
       O    -3.08175   -5.64632  -14.07414
      H1    -3.56235   -5.96946  -14.84415
       H    -4.87585    0.92101  -13.60005
       O    -4.09296    1.45147  -13.88106
      H1    -3.52165    0.78303  -14.26210
       H    -3.89467   -4.69642  -12.93065
       O    -4.23202   -4.28366  -12.09891
      H1    -5.18789   -4.29138  -12.27764
       H    -4.60228   -0.77567  -10.77091
       O    -4.86866   -1.04656  -11.67109
      H1    -4.34188   -1.85337  -11.81406
       H    -0.16132   -4.66479  -13.77690
       O    -0.52599   -4.58780  -14.68160
      H1    -1.44491   -4.83356  -14.53839
       H    -0.50987    0.54529  -12.11520
       O     0.42359    0.37338  -12.05906
      H1     0.55005   -0.02822  -12.92214
       H    -0.21546    1.33458  -14.59739
       O    -1.01429    1.84312  -14.45144
      H1    -0.80375    2.48808  -13.77415
       H    -1.12943   -3.67685  -10.65340
       O    -1.35764   -3.10333  -11.42051
      H1    -2.16828   -3.46111  -11.81738
       H     1.99467   -2.33626  -11.93416
       O     1.46821   -2.92388  -11.41148
      H1     0.57153   -2.54194  -11.36603
       H    -3.03789    1.45933  -12.29163
       O    -2.57908    1.17682  -11.46742
      H1    -3.26977    0.69303  -11.00801
       H    -1.33259   -0.02190  -16.02277
       O    -1.41831   -0.12651  -16.94443
      H1    -1.67299    0.79218  -17.19329
       H    -2.16982   -3.10409  -18.49318
       O    -1.59617   -3.63417  -17.92506
      H1    -2.00162   -3.45935  -17.05056

