60
frame 1 | Written by MDAnalysis XYZWriter (release 2.4.3)
       H   -13.93581   12.43471    6.94860
       O   -12.99789   12.64311    7.04000
      H1   -12.58043   11.80707    6.84535
       H   -10.59371   17.85557    2.32747
       O   -10.13342   17.01675    2.50109
      H1   -10.72254   16.40276    2.05909
       H    -9.71931   11.64580    5.00720
       O    -9.55167   12.52225    4.68666
      H1    -9.68952   13.07662    5.45669
       H    -9.87813   17.28954    9.34794
       O    -9.92336   16.36344    9.05991
      H1   -10.14723   15.92733    9.89526
       H   -12.92171   16.15871    8.17238
       O   -12.23564   16.53800    7.60671
      H1   -11.46626   16.46582    8.19335
       H   -14.52102   15.00723    4.81517
       O   -13.57222   14.86942    4.70595
      H1   -13.32892   14.64401    5.59055
       H   -12.66214   16.81564    1.20492
       O   -12.97794   16.57842    2.07759
      H1   -13.06919   17.40508    2.54685
       H   -10.25541   17.05777    4.32900
       O   -10.25074   17.15136    5.28539
      H1   -11.02051   17.75730    5.41402
       H    -6.35589   12.69208    7.29816
       O    -6.67733   13.53923    7.65856
      H1    -6.25465   14.20717    7.09940
       H    -8.34087   17.82433    7.68437
       O    -8.09283   17.40307    6.84890
      H1    -8.97858   17.17994    6.46574
       H   -12.72108   18.11990    8.09658
       O   -13.01952   18.72915    8.80645
      H1   -12.40780   18.49668    9.49067
       H    -9.49417   14.82423    7.35087
       O   -10.02510   14.54100    6.56672
      H1   -10.41348   15.34420    6.22085
       H    -6.12547   17.19449    5.15667
       O    -6.34829   17.69670    4.35888
      H1    -7.10596   18.23287    4.60817
       H    -8.53262   13.42918    3.44306
       O    -7.97010   13.47925    2.65783
      H1    -7.83921   14.44545    2.61665
       H   -13.43140   18.36561    5.47359
       O   -13.77212   17.90277    4.69264
      H1   -13.48193   17.00490    4.87826
       H   -11.14869   12.93984    3.81152
       O   -11.97492   13.06982    3.30859
      H1   -12.27671   13.96262    3.52499
       H   -11.30505   13.54173    1.67118
       O   -10.98011   13.91434    0.80847
      H1   -10.10973   13.52394    0.70609
       H    -6.87848   16.74902    3.18705
       O    -7.39993   16.29847    2.48331
      H1    -8.24517   16.70309    2.47000
       H    -8.31335   15.60912    9.80500
       O    -7.41202   15.44675   10.08871
      H1    -7.46077   14.52894   10.39925
       H    -6.51589   16.27035    6.87956
       O    -5.81810   15.77651    6.41097
      H1    -5.05045   15.75078    6.97031

