60
frame 1 | Written by MDAnalysis XYZWriter (release 2.4.3)
       H    11.42863  -14.57634   -9.06798
       O    11.00123  -13.74753   -9.23472
      H1    11.72356  -13.19488   -9.58373
       H     7.39724  -15.07013   -8.13939
       O     6.81674  -15.51612   -7.49735
      H1     7.45419  -15.92841   -6.86409
       H     7.44414  -18.50314  -12.77083
       O     6.80841  -18.91443  -13.38352
      H1     6.01044  -18.49097  -13.06549
       H    11.84185  -18.39831  -10.60122
       O    11.14835  -17.86802  -10.97725
      H1    11.37862  -17.72706  -11.90085
       H    11.39081  -18.55529   -2.97092
       O    11.57935  -18.45326   -3.92040
      H1    10.70655  -18.39768   -4.30765
       H     7.87149  -13.99428   -9.93645
       O     8.40257  -13.81802   -9.13271
      H1     9.35802  -13.82753   -9.43661
       H     9.16387  -18.04242  -11.26064
       O     8.27103  -17.72227  -11.30430
      H1     8.36944  -16.78398  -11.22255
       H    14.12929  -18.51557   -7.70663
       O    13.53537  -19.27226   -7.56147
      H1    12.74769  -18.92105   -7.13778
       H    12.25812  -16.73882  -10.01782
       O    12.46547  -16.04636   -9.40345
      H1    13.36691  -15.79624   -9.66644
       H     8.47735  -14.44022   -2.94520
       O     8.21382  -14.45096   -3.84749
      H1     8.39755  -15.36707   -4.12792
       H    11.53128  -17.09750   -7.85495
       O    11.04654  -17.48477   -7.11821
      H1    10.22632  -17.85439   -7.54324
       H    10.17927  -15.72721   -2.69478
       O     9.70824  -16.46123   -2.30748
      H1     9.72751  -17.10406   -3.05218
       H     9.83218  -15.61681   -6.02321
       O     9.16231  -16.27236   -5.80129
      H1     9.59840  -17.13341   -5.95396
       H     9.33600  -15.32816  -13.38555
       O     8.85358  -15.15709  -12.58147
      H1     8.04455  -15.66132  -12.73219
       H     4.60883  -16.55156   -7.30609
       O     4.37261  -17.49028   -7.54715
      H1     4.66268  -17.88410   -6.72651
       H     6.34114  -19.40728   -5.97156
       O     6.48533  -18.44192   -5.93752
      H1     6.14749  -18.19042   -5.08217
       H     5.29750  -17.64984   -9.13266
       O     5.75066  -17.59911   -9.97025
      H1     6.70349  -17.65324   -9.79644
       H     5.57160  -14.48914  -10.64277
       O     6.19015  -15.17904  -10.92847
      H1     5.76300  -15.94154  -10.55614
       H     8.10913  -19.17565   -8.16354
       O     8.30922  -18.28502   -7.89833
      H1     7.61734  -18.05837   -7.23081
       H     6.45219  -14.32559   -5.83982
       O     5.93800  -13.74833   -5.24571
      H1     6.50284  -13.67473   -4.48716

