60
frame 1 | Written by MDAnalysis XYZWriter (release 2.4.3)
       H    12.04202   -6.85930   -1.99179
       O    11.99677   -6.02922   -2.50404
      H1    12.88013   -5.70561   -2.50925
       H    14.55239  -11.36294   -0.68210
       O    15.41026  -11.20734   -1.08519
      H1    15.52824  -11.99185   -1.62839
       H     9.61854  -11.53169   -3.20253
       O    10.12495  -11.19637   -2.44242
      H1    10.70445  -11.90141   -2.22880
       H    12.55567   -8.51428    2.13441
       O    12.93537   -8.42174    1.26421
      H1    12.18684   -8.37311    0.69518
       H    11.05076   -8.51712    4.22366
       O    11.49496   -9.04979    3.56384
      H1    10.77944   -9.32357    2.97494
       H    10.72355  -13.04440    1.13973
       O    10.95715  -12.28931    0.58997
      H1    10.48348  -11.57255    1.04813
       H    12.22674   -6.38123    1.80975
       O    12.52464   -5.76202    2.46620
      H1    12.01918   -4.95537    2.30170
       H    10.74660   -7.05839   -3.45644
       O     9.97456   -7.49495   -3.92395
      H1     9.74395   -8.23457   -3.34987
       H    11.55655  -12.59586   -5.07424
       O    11.88650  -12.31435   -4.21248
      H1    11.18176  -11.70063   -3.89635
       H     8.53361   -6.19627    2.23829
       O     8.22865   -5.79245    1.42612
      H1     9.00997   -5.29160    1.17750
       H     7.33853   -8.32065   -3.12853
       O     7.43937   -7.53084   -2.57743
      H1     8.31595   -7.18419   -2.84346
       H    13.00901  -10.32282    1.01001
       O    13.39891  -11.17828    0.84341
      H1    12.63662  -11.77733    0.75288
       H    10.75438   -7.82400   -5.56335
       O    11.18917   -8.09239   -6.37687
      H1    10.50483   -7.90497   -6.99084
       H    10.67811   -8.88141   -1.11034
       O    11.53732   -8.43766   -1.16980
      H1    12.07538   -9.06844   -1.68715
       H     8.18238   -8.94503   -1.27389
       O     8.86094   -9.40984   -0.77649
      H1     9.07658  -10.14398   -1.34840
       H     8.46138  -10.50423    2.07903
       O     9.34674  -10.18197    1.84294
      H1     9.12287   -9.73755    1.03824
       H     8.37449   -4.73236   -1.22997
       O     8.99215   -5.46258   -1.34269
      H1     8.80180   -5.94670   -0.54598
       H    14.29872  -10.18854   -2.78629
       O    13.36960   -9.93401   -2.92122
      H1    13.01206  -10.53381   -3.58168
       H    11.54603   -4.62779   -1.52611
       O    11.48318   -3.76029   -1.11398
      H1    12.24285   -3.72705   -0.52541
       H    13.65972   -8.88696   -4.28788
       O    13.86619   -8.32045   -5.06383
      H1    13.74036   -8.94299   -5.78245

