60
frame 1 | Written by MDAnalysis XYZWriter (release 2.4.3)
       H     7.91655   -5.77063   14.04351
       O     8.77052   -5.70431   13.57725
      H1     8.49807   -5.57837   12.62785
       H     9.94575   -7.35355   13.30488
       O    10.49202   -8.10434   13.54532
      H1    11.38564   -7.73984   13.63238
       H     5.37170  -10.37110    7.87000
       O     6.12440  -10.91702    8.15278
      H1     6.32572  -11.52572    7.42010
       H    10.79113  -11.24618   11.87156
       O    11.10947  -11.63972   12.71223
      H1    10.33382  -11.65804   13.27092
       H    10.96520   -5.12341    9.58814
       O    10.61425   -5.17901   10.52103
      H1    11.01203   -5.99409   10.85383
       H    11.40432   -6.38291    5.79375
       O    11.09941   -7.30357    5.77345
      H1    10.94311   -7.53885    6.70743
       H     7.71823   -9.71219    7.97326
       O     8.58485   -9.37155    7.67093
      H1     8.77698   -8.74430    8.39070
       H     6.49519   -3.51645   11.45618
       O     6.64880   -4.39134   11.89368
      H1     6.28671   -5.03336   11.29369
       H     5.25015   -6.79739   12.83849
       O     5.73055   -6.53268   13.63870
      H1     5.94013   -7.37948   14.03492
       H     8.51953  -10.19781    4.88019
       O     8.80719   -9.29613    4.91610
      H1     8.64849   -9.11667    5.85164
       H     8.76521   -4.17858    8.40888
       O     8.58733   -3.31042    8.01437
      H1     7.66917   -3.11039    8.22797
       H    12.26564   -7.01923   11.82690
       O    11.95465   -7.47465   11.02286
      H1    11.17959   -7.99024   11.40504
       H     5.25812   -8.15410    7.80516
       O     4.90977   -8.65157    8.52473
      H1     5.53409   -8.47800    9.22980
       H     9.43388   -9.57827   10.35671
       O    10.33049   -9.94622   10.50193
      H1    10.25227  -10.73836    9.96979
       H     5.95571  -10.79842   11.32377
       O     6.76070  -10.37184   11.67024
      H1     6.46847  -10.13651   12.52372
       H     5.96843   -5.81359    9.71925
       O     5.95614   -6.48517   10.39862
      H1     5.03038   -6.45690   10.67997
       H     7.99536   -7.38155    9.86452
       O     8.34928   -8.12450   10.36334
      H1     7.56545   -8.61035   10.55091
       H     7.52482  -12.02081   12.15590
       O     7.70896  -12.93646   12.40471
      H1     7.12953  -13.37985   11.79683
       H    11.25499   -8.89044    9.29353
       O    11.43003   -8.45543    8.44105
      H1    12.01842   -9.02927    7.93641
       H     8.67424   -6.20496    7.92030
       O     8.60039   -5.88296    8.83162
      H1     9.47344   -5.93837    9.22701

