60
frame 1 | Written by MDAnalysis XYZWriter (release 2.4.3)
       H     4.60239  -17.74047    6.56846
       O     4.79138  -16.82486    6.76897
      H1     5.44154  -16.62214    6.07562
       H     3.42498  -19.11019    8.68907
       O     3.58661  -18.15314    8.78521
      H1     4.55848  -18.12358    8.61737
       H     6.27147  -15.52742    4.16797
       O     6.70257  -16.20148    4.67040
      H1     7.56274  -15.80771    4.99132
       H     9.19620  -14.13255   12.05209
       O     9.85603  -14.78148   11.80918
      H1     9.35258  -15.59444   11.65278
       H     8.75598  -17.53644    9.63594
       O     9.07271  -17.45127    8.72460
      H1     9.85772  -16.90350    8.74415
       H     9.67876  -17.91003   11.73171
       O     8.94176  -17.37792   11.37161
      H1     8.28836  -18.09082   11.28797
       H    13.60046  -17.58229    8.97029
       O    13.26514  -18.47375    9.15049
      H1    14.03941  -19.00706    9.01561
       H     5.20618  -15.42962   11.64591
       O     5.95855  -14.89047   11.38340
      H1     5.99761  -15.09173   10.45056
       H    11.16553  -15.80805    5.37751
       O    11.47555  -16.67604    5.02692
      H1    10.84122  -17.34286    5.32690
       H     8.26931  -16.44062   13.04326
       O     8.10715  -16.41350   13.99690
      H1     8.86914  -16.82979   14.38813
       H    10.06212  -14.38122    7.49366
       O     9.86898  -14.61332    6.56435
      H1     9.97533  -13.75748    6.07826
       H    11.63973  -14.99716    9.22605
       O    10.67343  -15.00798    9.20586
      H1    10.49637  -14.74958   10.12445
       H     5.85961  -19.00445   13.54203
       O     6.05112  -18.47685   14.30851
      H1     6.73629  -17.92961   13.95676
       H     4.07787  -18.47436   11.85385
       O     4.25725  -17.59651   11.46169
      H1     4.12868  -17.75682   10.50368
       H     7.52482  -12.02081   12.15590
       O     7.70896  -12.93646   12.40471
      H1     7.12953  -13.37985   11.79683
       H     5.28448  -15.50245    7.94799
       O     5.26193  -14.58160    8.13932
      H1     5.95946  -14.22698    7.59597
       H     6.08331  -18.20555   10.96228
       O     6.67806  -18.65434   10.37142
      H1     6.62058  -19.57541   10.64404
       H    10.67453  -15.62070   13.35886
       O    11.15836  -16.19420   13.96186
      H1    11.49529  -15.58506   14.64818
       H     7.47717  -13.65392    6.39558
       O     6.66123  -13.16330    6.30463
      H1     6.38529  -13.39991    5.42095
       H     9.59622  -18.64512    5.01778
       O    10.30933  -18.82774    5.68608
      H1     9.86080  -19.13231    6.47861

