60
frame 1 | Written by MDAnalysis XYZWriter (release 2.4.3)
       H   -10.44899   -5.34197    1.07515
       O   -10.94818   -5.03765    1.81514
      H1   -10.31999   -5.24325    2.53992
       H   -11.47630   -2.63224   -0.98369
       O   -12.31320   -2.99590   -1.27580
      H1   -12.69431   -3.28552   -0.42561
       H   -15.49204   -2.53281    5.53392
       O   -15.68756   -1.99624    4.78141
      H1   -15.14653   -1.19496    4.88665
       H   -13.77779   -5.03027    0.81550
       O   -14.08315   -4.17480    0.52933
      H1   -14.52048   -3.81953    1.34465
       H   -12.56985   -5.15055    2.71952
       O   -13.09032   -4.97958    3.54128
      H1   -14.02391   -5.03485    3.27145
       H   -11.46050   -1.65671    3.71244
       O   -11.03344   -1.65242    4.57916
      H1   -10.68947   -0.73443    4.62947
       H   -14.84544    2.21978   -0.38422
       O   -14.21415    1.58353   -0.09848
      H1   -13.98768    1.81836    0.83257
       H   -15.62802    1.10609    3.61412
       O   -14.76649    0.66513    3.41841
      H1   -14.10272    1.35983    3.33517
       H   -17.69997   -1.88086    1.79220
       O   -17.51373   -2.19847    2.68527
      H1   -16.59334   -1.95312    2.88802
       H   -12.38206   -6.27128    4.53015
       O   -12.32099   -7.08190    5.04160
      H1   -11.73785   -7.66479    4.56144
       H   -14.63876   -0.94279    2.41077
       O   -14.55883   -1.65535    1.76568
      H1   -14.60132   -1.14042    0.95712
       H   -12.66555   -2.38191    1.93818
       O   -11.68941   -2.28630    1.96315
      H1   -11.35779   -3.19893    2.02622
       H   -15.65959   -6.35969   -1.33480
       O   -16.00474   -5.59390   -0.86937
      H1   -15.25512   -5.22524   -0.39712
       H   -12.51963   -1.35514   -1.49920
       O   -12.28772   -0.41880   -1.72534
      H1   -12.66614   -0.33565   -2.60126
       H   -12.07187    2.64272    3.13090
       O   -12.57258    2.47757    2.29053
      H1   -12.02449    1.84362    1.79816
       H    -9.20657   -1.54462    0.48570
       O    -8.80762   -1.53133    1.33081
      H1    -8.39967   -2.38300    1.40021
       H   -14.42847   -0.44494   -1.37319
       O   -15.04437   -1.17827   -1.37514
      H1   -15.90450   -0.76911   -1.60683
       H   -12.41292   -0.25264    6.82175
       O   -13.05318   -0.76609    6.33783
      H1   -12.53162   -1.25592    5.69794
       H   -16.74355   -5.64564    3.29095
       O   -16.05073   -4.99555    3.53900
      H1   -16.07410   -4.98059    4.51313
       H   -12.14672    0.39670   -0.11748
       O   -11.63321    0.50660    0.69495
      H1   -11.27176   -0.37390    0.81845

