60
frame 1 | Written by MDAnalysis XYZWriter (release 2.4.3)
       H    15.36558    4.50780   -9.69530
       O    15.24693    4.91911  -10.55526
      H1    15.39515    4.13445  -11.09237
       H    17.64061    9.02239  -10.27328
       O    18.31922    8.89969  -10.96601
      H1    18.00091    8.09598  -11.37538
       H    16.50554    6.95671   -7.86146
       O    17.41248    6.76646   -7.56081
      H1    17.38511    5.98414   -7.00602
       H    15.36455    9.45420   -5.21473
       O    15.53630   10.17775   -5.80715
      H1    16.46204    9.97710   -6.07046
       H    14.55572    5.24978   -7.88079
       O    14.55722    6.06996   -7.39483
      H1    13.67114    6.41745   -7.56362
       H    14.65438    6.00123   -4.46688
       O    15.21068    5.29713   -4.82101
      H1    15.12069    5.47672   -5.74729
       H    12.43362    4.94006  -11.97355
       O    12.39250    5.07945  -11.02764
      H1    13.32921    5.09379  -10.76432
       H    16.94464   10.64723   -8.86181
       O    16.74401    9.68484   -8.77481
      H1    17.25099    9.40928   -7.98842
       H    16.42618    4.06359   -3.70983
       O    16.58195    3.67939   -2.82937
      H1    16.74240    2.75355   -3.03658
       H    11.30765    7.00822   -8.25810
       O    12.03393    6.57698   -7.80118
      H1    11.61731    5.74047   -7.52871
       H    16.17288    6.13933  -11.27102
       O    16.76488    6.72089  -11.73740
      H1    16.25021    7.52196  -11.92539
       H    13.68131    9.20861   -7.43554
       O    13.92321    9.30372   -8.34873
      H1    14.86017    9.45788   -8.33255
       H    15.02667    8.45615   -3.33327
       O    15.95540    8.50269   -3.60699
      H1    16.22692    7.58119   -3.47204
       H    12.22779    9.93292   -5.73350
       O    12.80795    9.14852   -5.68045
      H1    12.22667    8.42653   -6.00982
       H    17.98616    8.17662   -6.77404
       O    18.11790    9.06690   -6.43003
      H1    18.95559    9.28604   -6.83277
       H    14.51626    9.95022  -12.05140
       O    14.86139    9.05655  -12.12338
      H1    14.23326    8.48288  -11.62144
       H    13.32678    8.26410   -9.62202
       O    13.20898    7.79593  -10.47287
      H1    12.66682    7.02563  -10.29823
       H    15.34122    2.78834   -7.65631
       O    14.92013    3.45318   -8.24008
      H1    14.05980    3.07542   -8.36404
       H    14.71368    3.57045   -4.88629
       O    14.24446    2.78072   -5.13164
      H1    14.78307    2.09251   -4.72152
       H    18.95674    4.42937  -12.67180
       O    19.26449    5.18405  -12.19981
      H1    18.51949    5.77188  -12.21621

