60
frame 1 | Written by MDAnalysis XYZWriter (release 2.4.3)
       H   -11.32074  -16.06053   -8.04535
       O   -11.47024  -16.82916   -8.58459
      H1   -12.43296  -16.82648   -8.63529
       H   -18.35981  -12.59430   -9.30844
       O   -18.01291  -12.92917   -8.46066
      H1   -17.47304  -13.70424   -8.71177
       H   -16.69458  -18.81529  -10.44223
       O   -16.79929  -18.25110  -11.20309
      H1   -15.85629  -17.95728  -11.32225
       H   -11.67738  -17.54829  -16.45349
       O   -12.15099  -18.22506  -15.94009
      H1   -13.01090  -17.77981  -15.85307
       H   -17.47972  -16.80042   -7.02448
       O   -18.15457  -16.93894   -7.72352
      H1   -18.22015  -17.89515   -7.71331
       H   -17.27313  -16.02405   -8.92402
       O   -16.91979  -15.20543   -9.29722
      H1   -15.98613  -15.40235   -9.45186
       H   -10.74777  -16.42639  -12.51754
       O   -11.18731  -16.50087  -13.36200
      H1   -10.98791  -17.41632  -13.63061
       H   -16.16256  -18.83612  -14.56494
       O   -15.90945  -18.13246  -15.15265
      H1   -15.31797  -17.54987  -14.59115
       H   -14.45083  -16.08520   -7.59430
       O   -14.43421  -15.80702   -6.65158
      H1   -15.21899  -15.26232   -6.56865
       H   -15.37058  -18.26555  -16.93829
       O   -15.03885  -18.05431  -17.81927
      H1   -15.78702  -18.16830  -18.39361
       H   -14.25713  -17.40332  -12.25119
       O   -14.11780  -17.92256  -11.41872
      H1   -14.05350  -18.83916  -11.73502
       H   -16.38525  -14.63690  -13.11839
       O   -15.83856  -14.71758  -13.91242
      H1   -16.48242  -15.10956  -14.57649
       H   -17.89153  -16.27436  -15.79631
       O   -17.89508  -15.31376  -15.70100
      H1   -17.74661  -14.96903  -16.57713
       H   -13.90220  -15.27974   -9.64996
       O   -14.22977  -16.15708   -9.41711
      H1   -14.12221  -16.62519  -10.26115
       H   -18.59772  -12.83989  -13.03508
       O   -18.11574  -12.12305  -13.49648
      H1   -18.51706  -12.12095  -14.37341
       H   -14.83600  -19.14931   -5.95628
       O   -15.68211  -18.76166   -5.76984
      H1   -15.51348  -17.85066   -5.56773
       H   -18.31221  -16.19746  -12.14717
       O   -17.67529  -15.49671  -11.97623
      H1   -17.48277  -15.72540  -11.06329
       H   -14.40921  -13.00634  -11.66146
       O   -13.82231  -13.77980  -11.63554
      H1   -13.00891  -13.54835  -12.13615
       H   -14.52122  -15.73845  -13.71599
       O   -13.97755  -16.54169  -13.80767
      H1   -13.04529  -16.21916  -13.84458
       H   -13.33475  -12.86291   -8.74873
       O   -12.87234  -13.57623   -9.22800
      H1   -13.12265  -13.43952  -10.16237

