60
frame 1 | Written by MDAnalysis XYZWriter (release 2.4.3)
       H   -11.32074  -16.06053   -8.04535
       O   -11.47024  -16.82916   -8.58459
      H1   -12.43296  -16.82648   -8.63529
       H   -11.29017  -13.47252   -6.48255
       O   -11.53067  -12.57828   -6.25693
      H1   -12.46466  -12.67778   -6.05063
       H   -11.98034   -9.01750  -10.56401
       O   -11.87805   -9.99427  -10.53807
      H1   -11.09043  -10.15713  -11.04907
       H   -13.40423  -14.58579  -15.30343
       O   -13.41883  -13.59876  -15.41463
      H1   -12.85339  -13.32848  -14.66135
       H   -13.34126   -9.69213  -13.58641
       O   -13.38123  -10.30623  -12.89725
      H1   -12.90253   -9.86310  -12.18984
       H   -14.84294  -10.92903  -12.41993
       O   -15.64503  -11.37694  -12.11113
      H1   -15.91632  -11.83922  -12.89811
       H   -10.48464  -16.43114  -10.06139
       O   -10.20577  -16.09513  -10.92084
      H1    -9.26488  -16.02648  -10.71910
       H   -17.27313  -16.02405   -8.92402
       O   -16.91979  -15.20543   -9.29722
      H1   -15.98613  -15.40235   -9.45186
       H   -10.74777  -16.42639  -12.51754
       O   -11.18731  -16.50087  -13.36200
      H1   -10.98791  -17.41632  -13.63061
       H   -15.15027  -11.15748   -8.20986
       O   -14.24443  -11.20499   -8.52379
      H1   -14.19946  -10.63175   -9.29459
       H   -10.14227  -11.97401  -11.83190
       O    -9.80391  -11.23683  -12.37959
      H1    -8.89207  -11.47244  -12.60073
       H   -10.46031  -14.20856  -10.54587
       O   -10.49917  -13.24297  -10.30155
      H1   -11.18470  -13.18382   -9.61201
       H   -14.45083  -16.08520   -7.59430
       O   -14.43421  -15.80702   -6.65158
      H1   -15.21899  -15.26232   -6.56865
       H   -11.26971  -15.05587   -5.77095
       O   -10.80843  -15.11840   -6.63430
      H1    -9.90429  -14.88090   -6.39447
       H   -11.27388  -11.08857   -7.42901
       O   -10.88102  -10.50423   -8.07175
      H1   -11.45043  -10.48428   -8.83926
       H   -13.90220  -15.27974   -9.64996
       O   -14.22977  -16.15708   -9.41711
      H1   -14.12221  -16.62519  -10.26115
       H   -11.07574  -12.06701  -13.31871
       O   -11.95988  -12.41159  -13.47227
      H1   -12.51860  -11.60475  -13.38679
       H   -14.40921  -13.00634  -11.66146
       O   -13.82231  -13.77980  -11.63554
      H1   -13.00891  -13.54835  -12.13615
       H   -14.52122  -15.73845  -13.71599
       O   -13.97755  -16.54169  -13.80767
      H1   -13.04529  -16.21916  -13.84458
       H   -13.33475  -12.86291   -8.74873
       O   -12.87234  -13.57623   -9.22800
      H1   -13.12265  -13.43952  -10.16237

