60
frame 1 | Written by MDAnalysis XYZWriter (release 2.4.3)
       H   -11.20210   12.93300   13.82931
       O   -10.56735   13.63557   13.89452
      H1   -10.77678   14.11611   14.69692
       H    -7.51989    9.83399   13.82864
       O    -6.92939   10.13919   14.55120
      H1    -6.78565   11.09316   14.40287
       H   -10.21198    9.59566   17.47514
       O    -9.40829    9.86922   16.97066
      H1    -9.56990   10.82933   16.79977
       H   -12.31898    8.19911   17.47613
       O   -11.87258    8.90067   17.97459
      H1   -12.15798    8.71082   18.87545
       H    -9.41217    9.23069   13.45700
       O    -8.74473    8.71299   12.95802
      H1    -8.69330    7.92111   13.47991
       H    -8.85134   13.29209   17.50334
       O    -8.38069   13.61256   18.28648
      H1    -8.92762   13.28560   19.00240
       H   -11.79799   11.15957   14.35540
       O   -12.44152   11.85325   14.28169
      H1   -12.81479   11.91012   15.19642
       H    -9.50114    4.39549   18.16686
       O    -9.25901    3.94170   18.98231
      H1    -9.29119    3.02504   18.71916
       H   -15.22254   12.41355   15.74601
       O   -15.16096   12.14430   16.65525
      H1   -15.24817   11.20542   16.61391
       H   -10.14671    9.86763   15.30705
       O   -10.77395    9.79634   14.59486
      H1   -11.44409    9.17868   14.95128
       H   -12.13008   11.34669   17.55543
       O   -12.14048   11.91542   16.77581
      H1   -12.59757   12.72911   16.99792
       H    -8.66316    5.50711   13.92962
       O    -8.96644    6.33500   14.31598
      H1    -8.26111    6.52132   14.96466
       H   -12.33808    6.95731   15.50560
       O   -12.82873    7.75333   15.24982
      H1   -12.77927    7.71129   14.27623
       H    -9.89970    5.43272   15.72573
       O    -9.72258    5.33314   16.68050
      H1    -9.10684    6.05368   16.83968
       H    -8.48291    8.47450   16.92228
       O    -8.01588    7.65138   16.69942
      H1    -7.69753    7.37160   17.56917
       H   -11.47380    5.41833   16.93311
       O   -12.29340    5.90217   17.10226
      H1   -12.96447    5.34881   16.68256
       H   -11.74757    6.23698   12.99801
       O   -11.66437    7.18257   12.77547
      H1   -10.69650    7.36067   12.88209
       H    -5.26683   11.44508   17.15134
       O    -4.86098   10.60509   16.90894
      H1    -5.60100    9.98098   16.86799
       H    -9.46985   12.98753   15.35567
       O    -9.59113   12.48159   16.15875
      H1   -10.55879   12.40454   16.20682
       H   -14.16373    8.83291   16.27081
       O   -14.36340    9.50321   16.97505
      H1   -13.49304    9.78012   17.22374

