60
frame 1 | Written by MDAnalysis XYZWriter (release 2.4.3)
       H     9.69689   -3.33704    6.04545
       O     9.64469   -4.06918    5.42067
      H1    10.20775   -3.74470    4.67901
       H    10.96520   -5.12341    9.58814
       O    10.61425   -5.17901   10.52103
      H1    11.01203   -5.99409   10.85383
       H    11.40432   -6.38291    5.79375
       O    11.09941   -7.30357    5.77345
      H1    10.94311   -7.53885    6.70743
       H     7.71823   -9.71219    7.97326
       O     8.58485   -9.37155    7.67093
      H1     8.77698   -8.74430    8.39070
       H     6.49519   -3.51645   11.45618
       O     6.64880   -4.39134   11.89368
      H1     6.28671   -5.03336   11.29369
       H    11.96035   -4.13614    8.33984
       O    11.61606   -5.02843    8.08118
      H1    12.36333   -5.63959    8.22705
       H     8.51953  -10.19781    4.88019
       O     8.80719   -9.29613    4.91610
      H1     8.64849   -9.11667    5.85164
       H     9.66071   -3.70510   11.08461
       O     9.33101   -3.00461   11.64246
      H1     8.42730   -2.95740   11.39107
       H     8.76521   -4.17858    8.40888
       O     8.58733   -3.31042    8.01437
      H1     7.66917   -3.11039    8.22797
       H     9.30991   -7.05702    4.69144
       O     8.97609   -6.39840    4.10268
      H1     9.25445   -5.58778    4.52915
       H     5.25812   -8.15410    7.80516
       O     4.90977   -8.65157    8.52473
      H1     5.53409   -8.47800    9.22980
       H     9.43388   -9.57827   10.35671
       O    10.33049   -9.94622   10.50193
      H1    10.25227  -10.73836    9.96979
       H     7.75819   -3.94915    5.72992
       O     6.88713   -3.76832    5.32783
      H1     7.06511   -3.51403    4.43223
       H     5.96843   -5.81359    9.71925
       O     5.95614   -6.48517   10.39862
      H1     5.03038   -6.45690   10.67997
       H     5.73800   -5.28625    7.44365
       O     5.63658   -4.80902    8.28056
      H1     5.75365   -3.89383    7.99818
       H     7.99536   -7.38155    9.86452
       O     8.34928   -8.12450   10.36334
      H1     7.56545   -8.61035   10.55091
       H    11.25499   -8.89044    9.29353
       O    11.43003   -8.45543    8.44105
      H1    12.01842   -9.02927    7.93641
       H     4.75245   -6.01263    5.97495
       O     5.47328   -6.60532    6.14344
      H1     5.86300   -6.65884    5.23996
       H     8.67424   -6.20496    7.92030
       O     8.60039   -5.88296    8.83162
      H1     9.47344   -5.93837    9.22701
       H     9.90280   -1.77386   10.39802
       O    10.08729   -1.43804    9.50598
      H1     9.70568   -2.15400    8.96153

