60
frame 1 | Written by MDAnalysis XYZWriter (release 2.4.3)
       H    -0.76840   -4.57502    6.63792
       O    -0.78093   -5.04000    7.45819
      H1     0.11947   -5.34847    7.60340
       H     5.37170  -10.37110    7.87000
       O     6.12440  -10.91702    8.15278
      H1     6.32572  -11.52572    7.42010
       H    -0.79701   -6.39243    3.67599
       O    -1.51886   -6.87132    4.12781
      H1    -1.55372   -7.70017    3.64782
       H     3.48984  -11.17881    9.38632
       O     2.63898  -11.03426    8.94868
      H1     2.09310  -11.77203    9.27846
       H     2.08993   -6.95460    3.62334
       O     1.57998   -7.66819    4.00747
      H1     1.61279   -8.32069    3.28414
       H    -3.02184   -9.19186    6.74091
       O    -2.81968  -10.12273    6.55001
      H1    -3.36599  -10.60939    7.17791
       H    -1.56032   -6.70171    7.22548
       O    -2.14512   -7.37574    6.83081
      H1    -2.03029   -7.16285    5.91442
       H     1.80000   -6.72080    8.91928
       O     1.50081   -6.25758    8.14022
      H1     1.49106   -6.96850    7.48851
       H     1.05253   -9.02537    6.81868
       O     1.90631   -8.63182    6.59510
      H1     1.81988   -8.32812    5.66691
       H     0.96766  -10.56334    3.57349
       O     0.32435  -10.87604    4.19650
      H1     0.69876  -10.64361    5.05335
       H     5.25812   -8.15410    7.80516
       O     4.90977   -8.65157    8.52473
      H1     5.53409   -8.47800    9.22980
       H     3.11953   -8.09709    9.21372
       O     2.41616   -8.42405    9.79048
      H1     2.41355   -9.32690    9.50172
       H    -1.15361  -13.18457    6.91373
       O    -0.29677  -12.91243    7.26122
      H1     0.32532  -12.82330    6.52561
       H     2.71478  -12.41825    6.44721
       O     2.36905  -11.51336    6.36782
      H1     2.44450  -11.24387    7.28578
       H    -1.47186   -9.67014    2.06368
       O    -1.69113   -9.46937    3.00117
      H1    -0.94639   -9.83596    3.54430
       H     3.93913   -9.20541    5.90867
       O     4.70692   -9.45456    5.36891
      H1     5.06370   -8.59345    5.10697
       H     4.60017  -11.64461    3.63661
       O     4.02246  -10.99069    3.26305
      H1     3.89950  -10.36431    4.00199
       H    -2.78744   -6.38144    9.29844
       O    -2.97502   -7.32432    9.42764
      H1    -2.72232   -7.75748    8.59700
       H    -1.11268  -10.19830    6.92429
       O    -0.22189  -10.11721    7.31769
      H1     0.07853  -11.02993    7.30943
       H    -0.31322   -9.63739    8.99985
       O    -0.16237   -9.27938    9.88139
      H1     0.66389   -8.78505    9.79099

