60
frame 1 | Written by MDAnalysis XYZWriter (release 2.4.3)
       H   -12.53051    4.41206  -13.31265
       O   -13.29131    3.98410  -12.88402
      H1   -12.95739    3.65861  -12.02828
       H    -7.38498    7.26186  -10.08421
       O    -7.19541    8.18216  -10.25240
      H1    -7.98036    8.60151   -9.90505
       H   -12.77864    7.08459  -10.68853
       O   -12.11446    6.56384  -11.11463
      H1   -11.26300    7.03505  -11.07943
       H    -8.04005   10.54767  -15.60983
       O    -8.54179    9.78172  -15.29826
      H1    -9.48321   10.01719  -15.48143
       H    -7.57844   10.07719  -12.42821
       O    -8.41743    9.72693  -12.68174
      H1    -8.44003    9.79425  -13.64870
       H   -11.42097    9.19160  -16.02291
       O   -11.28081    9.65261  -15.20376
      H1   -11.45245    8.98821  -14.51379
       H    -9.28789    4.70760  -17.12298
       O    -9.29943    5.35391  -16.43867
      H1    -9.21876    6.20280  -16.86488
       H   -11.34382    3.76160  -10.59055
       O   -12.24405    3.41620  -10.51540
      H1   -12.74041    4.08741  -10.02147
       H    -8.74345    7.49813  -17.91759
       O    -9.26886    7.92852  -17.20282
      H1    -8.64352    8.09218  -16.50221
       H   -10.82066    5.33352  -15.25823
       O   -11.22977    5.18911  -14.39493
      H1   -11.59096    6.08008  -14.19647
       H    -9.46551    5.28192  -11.42256
       O    -9.48809    4.56937  -10.81214
      H1    -8.69522    4.10899  -11.08100
       H   -12.80433    7.69314  -14.05583
       O   -11.96015    7.63565  -13.61139
      H1   -12.17661    7.43016  -12.69744
       H    -7.13059    5.59986   -7.84512
       O    -7.10242    5.65621   -8.79968
      H1    -7.84589    5.09132   -9.06011
       H    -8.71494    7.63324  -12.52265
       O    -8.90256    6.68335  -12.45189
      H1    -9.37328    6.53099  -13.30611
       H    -7.01443    6.16607  -12.58731
       O    -6.13564    5.79754  -12.79348
      H1    -5.53763    6.46967  -12.47798
       H   -11.66251    9.75830  -10.48154
       O   -10.82832    9.25858  -10.48491
      H1   -10.17084    9.78886  -10.93644
       H    -6.82377    5.82761  -14.64502
       O    -7.05912    6.18527  -15.50807
      H1    -7.84650    5.66001  -15.78156
       H    -6.57584    4.28673  -11.75900
       O    -6.95341    3.54518  -11.22232
      H1    -7.14545    2.86561  -11.87485
       H   -10.10958    3.28660  -14.02811
       O   -10.03103    2.33810  -14.17464
      H1    -9.14033    2.20869  -14.51797
       H   -10.21403    5.70675   -8.38367
       O   -10.02295    6.66206   -8.59848
      H1   -10.69872    6.85894   -9.27086

