60
frame 1 | Written by MDAnalysis XYZWriter (release 2.4.3)
       H     1.71773    5.11826    3.34304
       O     2.50305    5.41292    3.84461
      H1     2.19710    5.82655    4.65758
       H    -0.81433    4.72015    4.64526
       O    -0.34776    5.57702    4.75277
      H1    -0.84032    6.15966    4.17935
       H    -0.37016    7.29293   -1.21716
       O    -0.18459    6.66483   -0.50896
      H1     0.55109    6.13171   -0.80725
       H    -0.91156    7.65712    5.92674
       O    -1.54161    7.91386    6.61946
      H1    -1.90390    7.03715    6.83541
       H     4.30614    4.61089   -0.18051
       O     4.13593    5.54460   -0.25326
      H1     5.04145    5.86603   -0.31221
       H     4.16946    5.94912    1.55421
       O     4.40366    6.41942    2.34783
      H1     3.59284    6.32400    2.85580
       H    -0.77256    9.93221    3.88562
       O    -0.24829    9.20305    4.21575
      H1     0.58068    9.23485    3.72133
       H     3.43046    5.70422   -1.88284
       O     2.77437    5.55081   -2.56533
      H1     2.83273    4.59483   -2.70911
       H     2.06590    8.73481    0.70934
       O     2.37846    9.54235    0.29693
      H1     3.16568    9.26363   -0.20664
       H     0.56014   11.63044    2.15062
       O     0.01381   11.79541    2.91194
      H1     0.63512   11.78167    3.67129
       H    -0.39141    3.99212    1.89100
       O     0.54851    4.26910    1.93128
      H1     1.00770    3.50091    1.54231
       H     0.77998   10.59414   -0.09950
       O    -0.03397   11.11035   -0.20114
      H1     0.25594   12.01828   -0.30126
       H    -2.23549    7.29501    2.56756
       O    -1.96878    7.17350    3.48264
      H1    -1.36750    7.94419    3.65931
       H    -2.66635    8.49933    0.57741
       O    -2.87971    7.63581    0.91259
      H1    -2.29745    7.10463    0.34285
       H     6.62478    8.26166    2.69526
       O     6.45949    8.89835    1.99243
      H1     5.57022    9.24402    2.17637
       H    -1.64103    9.02430   -2.14337
       O    -0.70763    8.88465   -1.95346
      H1    -0.39540    9.70064   -1.55600
       H     1.05664    6.04572    6.35792
       O     1.99847    6.15476    6.59534
      H1     2.25280    5.35830    7.00959
       H    -3.32004   11.00374   -0.57991
       O    -2.96098   10.64569    0.24442
      H1    -2.00755   10.80954    0.13646
       H     0.68087    7.37608    0.92346
       O     1.06067    7.56667    1.81287
      H1     1.00389    6.71795    2.31576
       H     3.39580    9.89489    1.84266
       O     4.14185   10.24603    2.33367
      H1     4.49814   10.92679    1.77973

