60
frame 1 | Written by MDAnalysis XYZWriter (release 2.4.3)
       H   -13.93581   12.43471    6.94860
       O   -12.99789   12.64311    7.04000
      H1   -12.58043   11.80707    6.84535
       H   -16.93924   15.54079    4.12652
       O   -16.05044   15.94111    4.18957
      H1   -15.79276   16.15495    3.26646
       H   -15.14675   16.35757    7.85271
       O   -14.81616   16.00985    8.69533
      H1   -15.57989   15.58702    9.05781
       H   -14.56602   14.64666    2.35915
       O   -14.91465   14.35001    1.52314
      H1   -15.43342   13.57171    1.75033
       H   -14.52102   15.00723    4.81517
       O   -13.57222   14.86942    4.70595
      H1   -13.32892   14.64401    5.59055
       H   -12.66214   16.81564    1.20492
       O   -12.97794   16.57842    2.07759
      H1   -13.06919   17.40508    2.54685
       H   -18.68287   12.51065    6.95771
       O   -18.26156   12.93198    6.20187
      H1   -17.32755   12.69126    6.33253
       H   -16.40388   11.59458    2.51500
       O   -16.53921   12.42255    2.98207
      H1   -17.50812   12.40696    3.13136
       H   -13.43140   18.36561    5.47359
       O   -13.77212   17.90277    4.69264
      H1   -13.48193   17.00490    4.87826
       H   -18.51496   18.47130    3.11854
       O   -18.94433   17.73455    2.68725
      H1   -18.25556   17.21796    2.29861
       H   -17.95898    9.80373    4.91025
       O   -18.27105   10.05393    5.79534
      H1   -18.24118   11.00969    5.76183
       H   -16.77119   13.87139    9.77311
       O   -17.02459   14.74182   10.11933
      H1   -16.45916   14.95131   10.87013
       H   -18.70149   15.45049    5.35591
       O   -18.54437   15.40400    4.40472
      H1   -18.87733   16.24082    4.05837
       H   -16.59112   17.12508    5.49216
       O   -16.51665   17.58780    6.36356
      H1   -17.41531   17.47803    6.70630
       H   -16.14795   17.47847    0.98025
       O   -16.70907   16.69046    1.01888
      H1   -16.08280   15.98114    1.16116
       H   -16.05161   11.04946    6.87040
       O   -15.75368   11.93807    6.71840
      H1   -15.22622   11.80707    5.92824
       H   -17.25482   18.54945    9.91962
       O   -16.33252   18.37845   10.08964
      H1   -16.04651   17.66244    9.51926
       H   -15.12634   11.63277    3.99886
       O   -14.24824   11.35875    4.35016
      H1   -13.65884   12.05750    4.06439
       H   -18.31971   16.57800   -1.60912
       O   -17.37892   16.69011   -1.49474
      H1   -17.26838   16.76602   -0.54665
       H   -17.14548   10.33455    1.24753
       O   -16.18131   10.17764    1.35952
      H1   -15.78616   10.48309    0.51918

