60
frame 1 | Written by MDAnalysis XYZWriter (release 2.4.3)
       H    17.11633   15.63472   -8.85011
       O    17.77450   15.24225   -9.45561
      H1    17.20943   14.81373  -10.10190
       H    13.56759   12.37903   -8.39887
       O    13.08619   11.81531   -8.98612
      H1    13.33526   10.92483   -8.71870
       H    16.57995   13.32526  -11.92367
       O    16.12725   13.78006  -11.22467
      H1    15.58667   14.40912  -11.70827
       H    11.27779   16.08949  -10.44658
       O    10.84155   16.97516  -10.33046
      H1    10.28126   16.80957   -9.58143
       H    11.85632   14.35789   -5.97412
       O    12.08446   15.00873   -6.68163
      H1    11.44757   14.81508   -7.41957
       H    10.74519   13.26670   -8.78452
       O    10.28706   13.91703   -8.25842
      H1     9.42229   13.98026   -8.72262
       H    13.36655   11.13230  -14.37382
       O    12.86902   11.59089  -13.69803
      H1    13.56521   11.72687  -13.03020
       H    15.04084   13.82944   -7.21573
       O    14.23287   13.98903   -7.73185
      H1    13.63691   14.36788   -7.07390
       H    10.47442   11.17173  -10.43716
       O     9.85443   11.77270   -9.93274
      H1     9.11435   11.17179   -9.79701
       H     9.42345   13.30538  -12.40457
       O     8.70268   13.44604  -11.76785
      H1     8.97426   12.83639  -11.06179
       H    11.63652   11.25612   -7.00693
       O    12.11178   11.77285   -6.34007
      H1    13.01825   11.88652   -6.70638
       H     8.62079   15.27806  -11.84328
       O     8.74118   16.26183  -11.79012
      H1     9.26803   16.38859  -11.02356
       H    10.70620   13.74983  -14.57612
       O    11.11041   13.72601  -13.71372
      H1    11.89936   13.18952  -13.86904
       H    13.87957   11.66327  -10.62620
       O    14.31334   11.80476  -11.47828
      H1    15.10384   12.35709  -11.26116
       H    11.01862   15.62492  -13.72606
       O    10.67115   16.49448  -13.80068
      H1    10.10047   16.60781  -13.01623
       H    12.86063   13.81085  -10.69565
       O    12.08942   14.35909  -10.87870
      H1    11.69485   13.94539  -11.63114
       H    14.51626    9.95022  -12.05140
       O    14.86139    9.05655  -12.12338
      H1    14.23326    8.48288  -11.62144
       H    11.61646   10.07435  -12.03978
       O    11.40640    9.89153  -11.11988
      H1    11.99836    9.16648  -10.95088
       H    13.08481   18.72023   -9.26437
       O    13.07300   18.44932  -10.20465
      H1    12.28021   17.89853  -10.22203
       H    16.00266   15.45080  -13.35060
       O    15.35824   16.11962  -13.14968
      H1    14.67933   16.01394  -13.82537

