60
frame 1 | Written by MDAnalysis XYZWriter (release 2.4.3)
       H   -10.44899   -5.34197    1.07515
       O   -10.94818   -5.03765    1.81514
      H1   -10.31999   -5.24325    2.53992
       H   -11.47630   -2.63224   -0.98369
       O   -12.31320   -2.99590   -1.27580
      H1   -12.69431   -3.28552   -0.42561
       H   -11.46050   -1.65671    3.71244
       O   -11.03344   -1.65242    4.57916
      H1   -10.68947   -0.73443    4.62947
       H    -7.36055    1.61505   -2.09816
       O    -7.49266    0.63445   -2.04842
      H1    -8.27686    0.62465   -1.46501
       H    -8.07719   -4.52080    2.31406
       O    -7.42875   -3.82828    2.09120
      H1    -7.31504   -3.38364    2.93840
       H    -7.40333   -1.38848    4.27031
       O    -7.67623   -2.30108    4.39312
      H1    -8.62642   -2.26607    4.39058
       H    -8.27803   -3.51321   -2.68769
       O    -7.55160   -2.91061   -2.67327
      H1    -7.18412   -3.00503   -1.78120
       H    -6.93481    1.05933    2.24125
       O    -7.42686    0.25159    2.57748
      H1    -8.09888    0.01732    1.88675
       H    -8.79468    0.82783    3.71739
       O    -9.34072    0.73304    4.51995
      H1    -8.88515    1.36469    5.13404
       H    -9.66122    2.32403   -0.94014
       O    -9.22305    1.66084   -0.40561
      H1    -9.94138    1.15918   -0.02148
       H    -8.78607   -1.60185   -2.17623
       O    -9.49820   -1.32143   -1.61217
      H1   -10.08338   -0.89368   -2.22168
       H   -12.66555   -2.38191    1.93818
       O   -11.68941   -2.28630    1.96315
      H1   -11.35779   -3.19893    2.02622
       H    -5.84482   -2.41841    0.08581
       O    -6.12477   -3.12342   -0.52580
      H1    -6.49664   -3.81783    0.04418
       H    -6.18557   -1.18987    1.98028
       O    -5.40749   -1.52158    1.49053
      H1    -5.13347   -2.34033    1.94182
       H   -12.51963   -1.35514   -1.49920
       O   -12.28772   -0.41880   -1.72534
      H1   -12.66614   -0.33565   -2.60126
       H    -8.86727    3.96230    1.66790
       O    -8.71314    3.09837    2.06263
      H1    -8.82118    2.54273    1.28367
       H    -4.36550    0.78961   -0.14906
       O    -3.96813    0.69321    0.72370
      H1    -4.69220    0.42394    1.26520
       H   -12.07187    2.64272    3.13090
       O   -12.57258    2.47757    2.29053
      H1   -12.02449    1.84362    1.79816
       H    -9.20657   -1.54462    0.48570
       O    -8.80762   -1.53133    1.33081
      H1    -8.39967   -2.38300    1.40021
       H   -12.14672    0.39670   -0.11748
       O   -11.63321    0.50660    0.69495
      H1   -11.27176   -0.37390    0.81845

