60
frame 1 | Written by MDAnalysis XYZWriter (release 2.4.3)
       H     6.05239   18.49886  -10.44575
       O     6.22562   17.56062  -10.44313
      H1     6.74711   17.43686  -11.25994
       H     6.78541   16.82484   -8.87469
       O     7.50667   16.80651   -8.20344
      H1     6.99979   16.82287   -7.36827
       H    11.27779   16.08949  -10.44658
       O    10.84155   16.97516  -10.33046
      H1    10.28126   16.80957   -9.58143
       H    11.85632   14.35789   -5.97412
       O    12.08446   15.00873   -6.68163
      H1    11.44757   14.81508   -7.41957
       H     4.22201   12.85652   -8.26986
       O     3.87294   13.65711   -8.68447
      H1     3.09657   13.32025   -9.21490
       H     7.98845   10.69614   -6.02546
       O     8.12891    9.81203   -6.38251
      H1     7.24621    9.46010   -6.21052
       H    10.74519   13.26670   -8.78452
       O    10.28706   13.91703   -8.25842
      H1     9.42229   13.98026   -8.72262
       H    10.47442   11.17173  -10.43716
       O     9.85443   11.77270   -9.93274
      H1     9.11435   11.17179   -9.79701
       H     9.42345   13.30538  -12.40457
       O     8.70268   13.44604  -11.76785
      H1     8.97426   12.83639  -11.06179
       H     3.63324   15.00929   -7.63834
       O     3.78842   15.80160   -7.08160
      H1     3.09616   16.40284   -7.37337
       H     4.84442   13.66384  -10.35055
       O     5.63657   13.99533  -10.84487
      H1     5.96751   13.16214  -11.19455
       H     8.62079   15.27806  -11.84328
       O     8.74118   16.26183  -11.79012
      H1     9.26803   16.38859  -11.02356
       H     6.68633   11.38235  -10.84844
       O     6.69878   11.66554  -11.77727
      H1     7.52256   12.15506  -11.83703
       H     6.59991   10.62501   -8.64244
       O     7.27595   10.46719   -9.33079
      H1     7.12930    9.59350   -9.69461
       H     7.46573   14.99129   -8.45514
       O     7.38670   14.03621   -8.70882
      H1     6.81333   14.03157   -9.49889
       H    10.74402   12.76566   -5.44811
       O     9.86939   13.05555   -5.75235
      H1    10.01155   13.36331   -6.64440
       H     6.42635   13.71500   -7.27390
       O     6.05110   13.73309   -6.38347
      H1     6.74231   13.30776   -5.84486
       H     6.82110   15.71207   -5.42058
       O     6.26280   16.46095   -5.59962
      H1     5.45673   16.01004   -5.93818
       H     5.14556   11.82635   -6.82214
       O     4.89760   11.30755   -7.60729
      H1     5.07779   10.41627   -7.31380
       H     8.00471   14.84038   -3.83329
       O     8.22718   14.89972   -4.76198
      H1     8.78121   14.11933   -4.93462

