60
frame 1 | Written by MDAnalysis XYZWriter (release 2.4.3)
       H    11.01679   -9.83617   -7.29296
       O    10.86687  -10.78549   -7.16845
      H1    10.87478  -11.14986   -8.08568
       H     8.13793  -12.53212   -7.70620
       O     8.12616  -11.58962   -7.43705
      H1     9.02586  -11.28933   -7.55865
       H    12.04202   -6.85930   -1.99179
       O    11.99677   -6.02922   -2.50404
      H1    12.88013   -5.70561   -2.50925
       H    13.85645  -11.11977   -6.47052
       O    13.74502  -10.37467   -7.10502
      H1    13.19779  -10.66600   -7.81341
       H    12.71787  -11.43384  -10.50517
       O    12.33212  -11.08975   -9.67322
      H1    11.75517  -10.40187   -9.95941
       H    10.74660   -7.05839   -3.45644
       O     9.97456   -7.49495   -3.92395
      H1     9.74395   -8.23457   -3.34987
       H    11.55655  -12.59586   -5.07424
       O    11.88650  -12.31435   -4.21248
      H1    11.18176  -11.70063   -3.89635
       H     8.05415   -7.92785   -7.64472
       O     8.77019   -7.43801   -8.04036
      H1     8.35616   -6.54219   -8.14507
       H     7.33853   -8.32065   -3.12853
       O     7.43937   -7.53084   -2.57743
      H1     8.31595   -7.18419   -2.84346
       H    14.91341   -5.82600   -6.46215
       O    15.04474   -5.76685   -7.40505
      H1    15.12620   -4.81095   -7.53991
       H    10.75438   -7.82400   -5.56335
       O    11.18917   -8.09239   -6.37687
      H1    10.50483   -7.90497   -6.99084
       H     6.60935  -10.34623   -3.99033
       O     6.49214   -9.40820   -4.28854
      H1     6.77757   -9.44645   -5.19365
       H    11.48809   -5.44139   -8.65536
       O    10.84957   -5.12382   -9.30405
      H1    10.20373   -4.66922   -8.77292
       H     8.43162  -12.79780   -4.48914
       O     8.55168  -11.83194   -4.61207
      H1     8.61486  -11.62607   -5.52632
       H    13.00272   -3.97785   -5.79437
       O    13.46270   -3.24459   -5.41480
      H1    13.57491   -2.64460   -6.14799
       H     9.93197   -3.74426   -5.19737
       O    10.59598   -3.64710   -5.91711
      H1    10.92748   -4.54665   -6.12618
       H    14.29872  -10.18854   -2.78629
       O    13.36960   -9.93401   -2.92122
      H1    13.01206  -10.53381   -3.58168
       H    13.41583   -5.83803   -7.33549
       O    12.48532   -5.60807   -7.04817
      H1    12.06790   -6.47072   -6.80308
       H    14.83048   -6.35780   -3.26893
       O    14.40324   -5.82026   -3.92838
      H1    13.96023   -6.50975   -4.45259
       H    13.65972   -8.88696   -4.28788
       O    13.86619   -8.32045   -5.06383
      H1    13.74036   -8.94299   -5.78245

