60
frame 1 | Written by MDAnalysis XYZWriter (release 2.4.3)
       H   -15.16877  -13.16038  -18.14888
       O   -15.17222  -14.00139  -18.58157
      H1   -14.47966  -14.46471  -18.05308
       H   -13.40423  -14.58579  -15.30343
       O   -13.41883  -13.59876  -15.41463
      H1   -12.85339  -13.32848  -14.66135
       H   -13.34126   -9.69213  -13.58641
       O   -13.38123  -10.30623  -12.89725
      H1   -12.90253   -9.86310  -12.18984
       H   -15.61815   -8.70797   -9.65697
       O   -16.27558   -9.23054  -10.14849
      H1   -15.83291   -9.59984  -10.92127
       H   -14.84294  -10.92903  -12.41993
       O   -15.64503  -11.37694  -12.11113
      H1   -15.91632  -11.83922  -12.89811
       H   -15.63028   -5.81746  -17.45608
       O   -15.07343   -6.52516  -17.16018
      H1   -15.64844   -7.26191  -16.85889
       H   -15.20494   -6.49308  -12.59043
       O   -14.98296   -7.41521  -12.41957
      H1   -15.67374   -7.90239  -12.86314
       H   -16.38525  -14.63690  -13.11839
       O   -15.83856  -14.71758  -13.91242
      H1   -16.48242  -15.10956  -14.57649
       H   -15.27584  -12.70030  -15.07997
       O   -15.84714  -11.91958  -15.19917
      H1   -16.67730  -12.25617  -14.82731
       H   -16.88464   -8.89187  -15.61013
       O   -16.47834   -8.89777  -16.49940
      H1   -16.13228   -9.80277  -16.60259
       H   -17.89153  -16.27436  -15.79631
       O   -17.89508  -15.31376  -15.70100
      H1   -17.74661  -14.96903  -16.57713
       H   -18.49053  -12.24231  -18.95567
       O   -17.87800  -11.72049  -18.41488
      H1   -18.30811  -11.55523  -17.57826
       H   -18.59772  -12.83989  -13.03508
       O   -18.11574  -12.12305  -13.49648
      H1   -18.51706  -12.12095  -14.37341
       H   -11.07574  -12.06701  -13.31871
       O   -11.95988  -12.41159  -13.47227
      H1   -12.51860  -11.60475  -13.38679
       H   -14.40921  -13.00634  -11.66146
       O   -13.82231  -13.77980  -11.63554
      H1   -13.00891  -13.54835  -12.13615
       H   -16.47073   -9.99657  -13.40813
       O   -16.68561   -9.10200  -13.68850
      H1   -17.40273   -8.85230  -13.11950
       H   -14.52122  -15.73845  -13.71599
       O   -13.97755  -16.54169  -13.80767
      H1   -13.04529  -16.21916  -13.84458
       H   -16.99956  -14.22668  -18.46480
       O   -17.83627  -14.62671  -18.30370
      H1   -17.87149  -15.39032  -18.88402
       H   -11.72528  -10.99030  -16.26610
       O   -12.09378  -11.11670  -17.16956
      H1   -12.80768  -11.74994  -17.07907
       H   -15.58738  -11.67131  -16.80165
       O   -15.26436  -11.55196  -17.72192
      H1   -16.07264  -11.58429  -18.25679

