60
frame 1 | Written by MDAnalysis XYZWriter (release 2.4.3)
       H    -8.05612  -15.85619   11.04381
       O    -8.16542  -16.17965   10.14391
      H1    -7.41452  -16.79540   10.01392
       H   -14.88932  -15.33669    9.91205
       O   -15.24226  -14.45910    9.91712
      H1   -16.13510  -14.57875    9.60290
       H   -10.46709  -11.01320   12.33803
       O   -10.91723  -11.85015   12.53989
      H1   -11.82399  -11.57213   12.75804
       H   -13.89755  -13.55790   15.93370
       O   -13.51232  -12.97235   15.29825
      H1   -13.85989  -13.34324   14.47494
       H    -9.01439  -17.50934   12.84179
       O    -9.77821  -17.25601   12.29139
      H1    -9.36213  -17.02779   11.45048
       H   -16.73287  -16.11192   11.82112
       O   -16.41218  -15.68098   12.63512
      H1   -15.51837  -15.42828   12.36242
       H   -10.12746  -18.52051   16.29690
       O   -10.22135  -18.55678   15.33924
      H1   -11.09695  -18.18301   15.21819
       H    -9.14198  -18.87618   10.02173
       O    -9.41128  -18.90694    9.09724
      H1    -9.80004  -18.01296    8.97248
       H   -10.73546  -15.35962   15.68540
       O   -10.30330  -15.72635   16.48030
      H1   -10.99365  -15.88811   17.14673
       H   -10.25593  -16.15632    7.64294
       O   -10.77547  -16.73470    8.20625
      H1   -11.25298  -16.11040    8.77557
       H   -15.62073  -18.17347   14.19409
       O   -14.94051  -17.63172   13.69861
      H1   -15.50978  -17.02107   13.25860
       H   -14.38001  -13.90614   11.72363
       O   -13.92017  -13.97393   12.57718
      H1   -13.35540  -14.76299   12.48150
       H   -13.87131  -16.80170    9.35765
       O   -14.76977  -17.13462    9.16731
      H1   -14.67382  -18.05623    9.39028
       H   -11.60400  -16.04577   13.19450
       O   -12.41830  -16.15166   12.62710
      H1   -12.29932  -17.02054   12.26774
       H   -12.34305  -14.73872    9.75386
       O   -12.51262  -15.68437    9.95765
      H1   -12.14977  -15.70296   10.86434
       H    -7.55548  -17.11710   14.49081
       O    -7.78043  -17.97572   14.12584
      H1    -8.64887  -18.25967   14.46199
       H    -6.86609  -14.17831   12.45748
       O    -7.35040  -15.01344   12.48499
      H1    -7.67693  -15.08290   13.39752
       H   -11.08236  -18.33082   11.65625
       O   -11.83816  -18.64157   11.16129
      H1   -12.40297  -19.15310   11.71760
       H   -10.82614  -13.40230   13.79458
       O   -11.06273  -14.10026   14.41455
      H1   -11.95823  -13.83217   14.66187
       H   -13.33547  -18.34190   16.18204
       O   -12.87379  -17.78742   15.59064
      H1   -13.55714  -17.42460   14.98521

