60
frame 0 | Written by MDAnalysis XYZWriter (release 2.4.3)
       H     0.54494  -17.82400   -8.42088
       O    -0.11928  -18.35262   -8.89869
      H1    -0.89306  -18.30763   -8.32751
       H    -6.23201  -12.81145  -11.52311
       O    -6.91169  -12.10823  -11.41058
      H1    -6.82073  -11.78075  -10.51355
       H    -4.99115  -17.34199   -9.39995
       O    -4.10039  -17.51847   -9.00856
      H1    -3.58719  -16.73229   -9.10911
       H    -0.45888  -18.86023  -10.76092
       O    -1.24493  -18.97644  -11.29618
      H1    -1.81524  -19.36618  -10.64467
       H    -3.49587  -16.73746   -5.23391
       O    -2.76489  -17.25320   -4.91962
      H1    -2.62011  -17.90469   -5.63741
       H    -6.56497  -15.66089   -9.50926
       O    -6.54670  -16.59856   -9.75535
      H1    -6.97692  -16.56781  -10.62069
       H    -1.24430  -16.78237  -11.73659
       O    -1.08628  -16.52368  -12.65244
      H1    -1.14873  -17.29225  -13.20787
       H    -5.81718  -16.38906  -12.65557
       O    -4.89443  -16.20179  -12.88687
      H1    -4.50348  -17.09849  -12.99374
       H    -5.93675  -13.80389   -7.61771
       O    -6.55355  -14.41886   -8.05960
      H1    -7.00318  -13.77407   -8.57211
       H   -10.86499  -18.22133   -7.82941
       O   -10.25163  -18.11449   -8.55667
      H1   -10.55943  -17.33329   -9.05616
       H    -0.40277  -14.93891   -6.15682
       O    -0.92655  -14.67793   -6.93955
      H1    -1.82476  -14.49454   -6.57703
       H    -8.50598  -16.07361   -6.29691
       O    -8.43383  -15.26339   -5.79424
      H1    -7.88729  -14.70900   -6.35865
       H    -1.15572  -13.09224  -10.13344
       O    -1.63392  -13.08174  -10.97428
      H1    -2.46861  -13.51734  -10.76851
       H    -5.21413  -15.84357   -5.85204
       O    -4.84200  -15.21518   -5.20742
      H1    -5.50008  -15.29922   -4.53917
       H    -7.42948  -17.52234  -12.50183
       O    -7.57064  -16.57220  -12.28265
      H1    -7.72103  -16.12422  -13.10903
       H    -8.71340  -17.23190   -7.97024
       O    -7.87690  -17.25496   -7.46614
      H1    -7.26352  -16.86506   -8.11814
       H    -2.55615  -18.42586  -12.36491
       O    -3.32923  -18.33556  -12.94830
      H1    -3.02483  -18.78232  -13.73866
       H    -4.63589  -14.74715  -12.04027
       O    -4.53233  -13.80665  -11.83841
      H1    -4.36344  -13.33432  -12.70438
       H    -4.98006  -17.29062   -7.45855
       O    -5.31818  -17.46633   -6.55107
      H1    -6.26672  -17.65073   -6.75614
       H    -1.73428  -15.46210   -8.37047
       O    -1.98883  -15.77423   -9.23171
      H1    -1.44613  -16.55023   -9.28319

