60
frame 1 | Written by MDAnalysis XYZWriter (release 2.4.3)
       H    -3.15647    4.98012  -10.60887
       O    -2.39067    5.39760  -11.03538
      H1    -1.94814    4.66040  -11.46643
       H    -3.72130    6.50152  -11.56164
       O    -4.12332    7.32789  -11.88055
      H1    -4.02920    7.89939  -11.06933
       H     3.95865    2.79830  -13.78272
       O     3.08685    3.06416  -14.01356
      H1     2.97255    3.74941  -13.37903
       H    -1.17541    6.79061  -14.11224
       O    -0.44430    6.15952  -14.12563
      H1    -0.28084    6.02137  -15.07621
       H     2.77685    8.11207  -15.46576
       O     3.53085    7.78056  -14.95451
      H1     3.51776    6.83784  -15.12232
       H    -3.86617    5.65000  -13.83112
       O    -3.37337    5.97262  -14.62718
      H1    -3.30686    6.90936  -14.45077
       H    -2.34691    5.72435  -18.01987
       O    -1.68206    5.39608  -18.60528
      H1    -1.77737    4.43690  -18.62929
       H    -0.58779    8.66479  -10.61613
       O    -0.97838    8.99772   -9.76935
      H1    -0.90997    8.15878   -9.24978
       H    -2.33003    4.55822  -15.37634
       O    -1.78420    4.06101  -16.02100
      H1    -1.32717    3.37802  -15.47826
       H     1.08219    9.05462  -17.20303
       O     1.68947    8.35164  -16.92230
      H1     1.50775    7.69874  -17.63021
       H    -0.21546    1.33458  -14.59739
       O    -1.01429    1.84312  -14.45144
      H1    -0.80375    2.48808  -13.77415
       H     0.66679    5.13034  -17.61534
       O     0.63056    4.86064  -16.67482
      H1    -0.29727    4.71583  -16.53745
       H     1.49654    5.53446  -10.48214
       O     1.73681    6.41933  -10.20858
      H1     1.35406    7.01305  -10.85391
       H    -1.23437    6.06634   -9.66357
       O    -0.79749    6.40443   -8.87205
      H1     0.13853    6.43395   -9.01388
       H    -0.24245    4.42426  -12.85294
       O    -0.75989    3.72217  -12.46619
      H1    -0.28951    3.55310  -11.62294
       H    -2.77275    7.92557  -17.23060
       O    -3.16762    7.04939  -17.19179
      H1    -3.08154    6.81038  -16.27299
       H    -4.82985    3.75695  -12.12516
       O    -4.17616    3.88333  -12.82370
      H1    -4.11082    3.00437  -13.23580
       H     0.08625    7.51868  -12.57807
       O     0.51800    8.07622  -11.87685
      H1     0.97782    8.77655  -12.37673
       H     3.17906    4.16523  -15.35464
       O     3.23005    5.04957  -15.77409
      H1     2.32408    5.25123  -16.02666
       H    -2.98898    8.17942  -13.03901
       O    -2.19914    8.18381  -13.60256
      H1    -2.21595    9.06824  -13.98151

