60
frame 1 | Written by MDAnalysis XYZWriter (release 2.4.3)
       H    -7.10248   16.43952   17.96959
       O    -6.71149   16.34804   17.09526
      H1    -6.78386   17.24014   16.73877
       H     0.98593   17.20067   12.74178
       O     0.87247   16.28222   12.57604
      H1    -0.04095   16.07453   12.79133
       H    -6.21497   18.79526   14.46107
       O    -5.62634   18.28213   15.00362
      H1    -5.09433   17.78223   14.37600
       H    -5.27205   14.38874   17.79563
       O    -5.68183   13.51147   17.70387
      H1    -6.52718   13.62162   18.12341
       H    -3.52025   15.76923   16.28311
       O    -4.29659   15.76513   15.75713
      H1    -5.02229   15.93487   16.36855
       H    -4.22768   17.18399   12.41191
       O    -3.67533   17.86729   12.80764
      H1    -2.81524   17.86355   12.33164
       H    -4.02418   14.13805   18.47489
       O    -3.80970   15.02016   18.85123
      H1    -2.89147   14.92742   19.08967
       H    -2.08885   17.54440   14.87508
       O    -1.41030   16.98990   14.47168
      H1    -1.89379   16.44653   13.81855
       H    -3.00591   18.32831   16.71616
       O    -3.07458   18.77478   15.86226
      H1    -3.99094   18.49674   15.59158
       H    -6.97372   19.36913   18.32993
       O    -7.47831   18.59329   18.62286
      H1    -6.78875   18.09490   19.09920
       H     0.45197   18.74555   15.95500
       O     0.65042   18.96095   16.86559
      H1     0.55702   18.14836   17.36763
       H    -1.81314   17.07484   18.28158
       O    -2.71142   17.43817   18.12276
      H1    -3.29630   16.72038   18.39074
       H    -1.55059   12.96095   17.04611
       O    -1.23847   13.86247   16.86373
      H1    -1.10600   13.83824   15.90627
       H    -2.43618   14.94821   11.35047
       O    -1.77291   15.12663   12.04226
      H1    -1.68032   14.24205   12.41013
       H    -7.79067   18.00179   12.28815
       O    -8.12615   18.20761   11.43765
      H1    -8.19592   17.35042   10.99635
       H    -1.20791   18.67529   10.42705
       O    -1.01227   18.58003   11.36446
      H1    -0.55959   19.42295   11.62766
       H    -6.38717   16.07493   13.42856
       O    -5.69848   16.07197   12.74596
      H1    -5.11378   15.34888   13.08597
       H    -5.15973   13.57107   13.85252
       O    -4.27577   13.94675   13.77876
      H1    -4.16104   14.52174   14.56310
       H    -0.31463   15.99911   18.79748
       O     0.02803   16.88783   18.68669
      H1     0.91489   16.80551   19.06717
       H    -7.53562   15.01713   15.62363
       O    -7.65997   14.91181   14.70045
      H1    -8.47140   15.38833   14.51700

