60
frame 1 | Written by MDAnalysis XYZWriter (release 2.4.3)
       H    -5.96538   -9.03251    9.36943
       O    -5.07253   -9.10324    9.77116
      H1    -4.69322   -8.23089    9.60659
       H    -3.39972  -10.83579    4.63221
       O    -3.43530  -11.36502    3.81200
      H1    -2.77384  -10.88923    3.26370
       H    -4.25098  -15.42628    9.04768
       O    -5.05271  -15.38250    8.52396
      H1    -5.55802  -14.63395    8.93798
       H    -3.02184   -9.19186    6.74091
       O    -2.81968  -10.12273    6.55001
      H1    -3.36599  -10.60939    7.17791
       H    -9.05835  -16.46327    5.58875
       O    -9.67109  -15.75078    5.63525
      H1    -9.07220  -15.01861    5.87894
       H    -9.09299   -9.60662    7.95555
       O    -9.16302   -9.96682    8.86313
      H1    -8.58680  -10.74535    8.88554
       H   -10.03836  -12.12029    6.39716
       O   -10.35898  -12.97133    6.67177
      H1   -10.91775  -12.74009    7.45308
       H    -5.49189  -13.74253    6.22777
       O    -5.34127  -14.64448    5.95801
      H1    -5.00126  -15.10140    6.73817
       H    -8.57944  -14.97147    8.76812
       O    -8.27096  -14.56210    7.96671
      H1    -9.04845  -14.12613    7.67516
       H    -2.58617  -13.41670   10.62463
       O    -2.42918  -13.78598    9.74218
      H1    -2.87420  -13.08629    9.17127
       H    -6.01296   -7.82669    6.95362
       O    -5.41083   -8.43294    6.47846
      H1    -5.82417   -9.28110    6.58500
       H    -6.26172  -14.38791    1.91672
       O    -6.31815  -14.61154    2.85078
      H1    -6.02001  -15.51056    2.81511
       H    -8.30904  -10.27914    5.31434
       O    -8.92958  -11.02826    5.35675
      H1    -8.39616  -11.78940    5.09496
       H    -3.93528  -14.32748    4.28656
       O    -3.13929  -14.12442    3.83880
      H1    -3.19519  -13.15840    3.81161
       H    -7.40777  -13.63628    4.25557
       O    -7.83570  -13.77891    5.09118
      H1    -7.23958  -14.35463    5.56169
       H    -4.18135  -10.96741    9.30360
       O    -4.14469  -11.80090    8.79534
      H1    -5.04846  -11.95895    8.53674
       H    -5.81193  -11.78054    5.52267
       O    -5.92149  -12.05120    6.43178
      H1    -6.84404  -12.23098    6.61175
       H    -5.49765  -16.11436    4.75872
       O    -5.58714  -16.99970    4.37537
      H1    -6.51219  -17.19569    4.53741
       H    -7.34443  -12.24517    9.79887
       O    -7.55381  -12.08214    8.88268
      H1    -7.91453  -12.91520    8.58835
       H    -6.77716  -11.08009    3.38778
       O    -5.99790  -10.83920    3.93453
      H1    -5.21970  -11.07792    3.42513

