60
frame 1 | Written by MDAnalysis XYZWriter (release 2.4.3)
       H    -3.94780    4.43872   14.21134
       O    -4.88694    4.32378   14.16240
      H1    -5.21083    5.12813   14.60117
       H    -4.44043   -2.08628   13.99108
       O    -4.36774   -1.27119   13.48126
      H1    -5.30298   -1.10103   13.28938
       H    -7.28861   -2.03390   14.46861
       O    -7.41657   -1.88370   13.52859
      H1    -8.20341   -1.30962   13.46090
       H    -5.80745    4.57200   10.55099
       O    -5.90116    4.28394   11.49475
      H1    -5.39223    4.92637   11.95823
       H    -4.40070   -0.58886   15.41194
       O    -4.34285   -0.19911   16.29950
      H1    -5.22467   -0.38745   16.61847
       H   -11.10344    2.03684   16.54993
       O   -11.71085    1.80704   15.83082
      H1   -12.27812    1.09274   16.13705
       H    -4.73045    4.25854   17.78896
       O    -3.81334    4.46899   17.58853
      H1    -3.64553    5.15382   18.24221
       H   -10.74260    0.07052   13.60123
       O   -10.23441   -0.66603   13.94069
      H1   -10.28133   -1.35333   13.26153
       H    -9.50114    4.39549   18.16686
       O    -9.25901    3.94170   18.98231
      H1    -9.29119    3.02504   18.71916
       H    -3.57623    2.23354   12.45503
       O    -3.63347    2.51096   11.51305
      H1    -4.41615    3.08505   11.51718
       H    -6.31104    0.95452   18.25713
       O    -7.00401    1.25215   17.64328
      H1    -6.58395    1.95180   17.11137
       H    -6.65894    1.86750   15.44044
       O    -6.58382    2.81268   15.61731
      H1    -5.78759    3.11677   15.14859
       H    -8.66316    5.50711   13.92962
       O    -8.96644    6.33500   14.31598
      H1    -8.26111    6.52132   14.96466
       H    -7.25419   -1.65967   16.98930
       O    -6.84259   -1.18685   16.24297
      H1    -7.15277   -0.30310   16.41734
       H    -3.43395    2.63702   17.07026
       O    -2.79408    1.91513   16.95947
      H1    -3.32825    1.17847   16.59200
       H    -9.95691    0.82476   18.23131
       O    -9.69942    1.59903   17.69316
      H1    -8.75445    1.49431   17.50826
       H    -2.84650    0.53530   14.38079
       O    -2.95893    1.30518   13.83825
      H1    -2.11989    1.78017   13.93238
       H    -7.84344    2.18840   13.48624
       O    -8.02487    1.23793   13.35015
      H1    -7.70689    1.07153   12.44984
       H    -7.22285    4.23728   12.70777
       O    -7.83000    4.13055   13.45196
      H1    -7.28412    3.81799   14.18607
       H   -11.03154    2.06835   14.06411
       O   -10.89603    1.99297   13.11369
      H1    -9.94427    1.80163   13.10661

