60
frame 0 | Written by MDAnalysis XYZWriter (release 2.4.3)
       H    -1.80891    4.52320    4.80939
       O    -2.16440    5.14259    4.17041
      H1    -2.80600    5.59005    4.64982
       H    -0.63364    2.57496   13.37749
       O    -1.39253    3.07256   13.01404
      H1    -1.48231    2.78437   12.08651
       H     0.85767    5.48801    6.36914
       O     1.21855    4.65148    6.08417
      H1     1.31983    4.75061    5.12014
       H    -4.07670    7.92914   10.38081
       O    -3.27594    8.03196    9.81813
      H1    -3.12199    9.01161    9.81924
       H    -0.77318    0.39662    6.60244
       O    -0.29778    0.48124    7.46262
      H1    -0.23074    1.42633    7.62499
       H    -2.40860    4.58384    8.75785
       O    -2.99980    4.05380    8.16920
      H1    -3.79485    4.63956    8.11987
       H    -4.33504    8.86820    7.00863
       O    -5.31376    8.99034    7.07759
      H1    -5.61888    8.11260    7.29665
       H    -0.44399    3.50829    9.53550
       O     0.06311    3.01400    8.90483
      H1     0.93160    3.38526    8.74965
       H    -5.32870    5.79560    8.13517
       O    -4.62678    6.21747    7.61476
      H1    -4.11777    6.74666    8.19578
       H    -5.77309    3.90557   10.54706
       O    -5.70599    3.79086    9.58448
      H1    -6.37378    3.22244    9.20199
       H     0.60441    5.13057   11.30430
       O     1.48856    5.02458   11.73245
      H1     1.52727    4.16658   12.13307
       H    -3.78076    2.81291    6.10081
       O    -4.61103    2.31691    6.15378
      H1    -4.46680    1.51609    5.61884
       H    -1.59266    8.22093   10.27321
       O    -0.68249    7.92179   10.52056
      H1    -0.42787    7.46881    9.68339
       H    -1.33521    3.36174    6.99364
       O    -1.12681    3.47970    6.04442
      H1    -0.27542    3.91815    6.12531
       H    -3.84531    5.60885   13.15909
       O    -4.26188    5.23862   12.37911
      H1    -5.10379    5.73772   12.36105
       H     0.55284    1.44970   11.26115
       O     0.59433    0.88813   10.45270
      H1     0.44405    1.62649    9.75734
       H     0.46784    7.51666    7.24084
       O    -0.24582    6.88295    7.19363
      H1    -1.00147    7.44466    6.93014
       H    -2.27997    5.09027   10.88980
       O    -1.46685    5.34885   10.46069
      H1    -1.43624    6.32860   10.59150
       H    -2.32473    9.43716    7.49810
       O    -2.26588    8.81224    6.81199
      H1    -1.66781    9.29743    6.14571
       H    -3.32094    2.65294    9.26329
       O    -3.39910    1.78355    9.74473
      H1    -4.09999    1.98903   10.36422

