60
frame 1 | Written by MDAnalysis XYZWriter (release 2.4.3)
       H    15.61540   -5.70804   11.48935
       O    15.25659   -5.02915   12.04277
      H1    15.92073   -4.89659   12.72849
       H     7.91655   -5.77063   14.04351
       O     8.77052   -5.70431   13.57725
      H1     8.49807   -5.57837   12.62785
       H     9.94575   -7.35355   13.30488
       O    10.49202   -8.10434   13.54532
      H1    11.38564   -7.73984   13.63238
       H    13.77587   -6.96807    8.03988
       O    13.64520   -6.71704    8.95754
      H1    12.97860   -7.37902    9.24207
       H    10.79113  -11.24618   11.87156
       O    11.10947  -11.63972   12.71223
      H1    10.33382  -11.65804   13.27092
       H    10.96520   -5.12341    9.58814
       O    10.61425   -5.17901   10.52103
      H1    11.01203   -5.99409   10.85383
       H    11.40432   -6.38291    5.79375
       O    11.09941   -7.30357    5.77345
      H1    10.94311   -7.53885    6.70743
       H     7.71823   -9.71219    7.97326
       O     8.58485   -9.37155    7.67093
      H1     8.77698   -8.74430    8.39070
       H    11.96035   -4.13614    8.33984
       O    11.61606   -5.02843    8.08118
      H1    12.36333   -5.63959    8.22705
       H     9.66071   -3.70510   11.08461
       O     9.33101   -3.00461   11.64246
      H1     8.42730   -2.95740   11.39107
       H    14.74466   -8.01819   11.56677
       O    15.23403   -7.80557   10.74543
      H1    14.54167   -7.40399   10.21134
       H    12.26564   -7.01923   11.82690
       O    11.95465   -7.47465   11.02286
      H1    11.17959   -7.99024   11.40504
       H     9.43388   -9.57827   10.35671
       O    10.33049   -9.94622   10.50193
      H1    10.25227  -10.73836    9.96979
       H    14.52787   -9.49423   13.56867
       O    14.72586   -8.52610   13.48213
      H1    15.61977   -8.41788   13.83278
       H     7.99536   -7.38155    9.86452
       O     8.34928   -8.12450   10.36334
      H1     7.56545   -8.61035   10.55091
       H    12.30375   -3.27729   12.53740
       O    11.59630   -3.62812   13.09667
      H1    10.74200   -3.31424   12.72529
       H    13.58198   -6.43280   13.13012
       O    12.70412   -6.41313   13.51062
      H1    12.48615   -5.47524   13.55816
       H    11.25499   -8.89044    9.29353
       O    11.43003   -8.45543    8.44105
      H1    12.01842   -9.02927    7.93641
       H     8.67424   -6.20496    7.92030
       O     8.60039   -5.88296    8.83162
      H1     9.47344   -5.93837    9.22701
       H    13.29732  -11.98213   14.20953
       O    13.46427  -11.11679   13.80936
      H1    12.62698  -11.05669   13.33172

