60
frame 1 | Written by MDAnalysis XYZWriter (release 2.4.3)
       H    17.22560    0.47293  -17.12346
       O    17.56634    0.38183  -16.20123
      H1    18.25628   -0.29067  -16.30382
       H    12.80006   -2.82879  -15.34069
       O    13.25283   -3.00664  -16.17247
      H1    13.42494   -3.95259  -16.12158
       H    19.17729   -2.61434  -15.99799
       O    18.88223   -3.49185  -15.88600
      H1    18.20433   -3.53780  -16.54616
       H    14.79819   -2.90258  -14.93062
       O    15.52131   -3.16703  -14.33645
      H1    15.41717   -4.14037  -14.30329
       H    18.24538    3.07075  -14.97948
       O    18.27441    3.06519  -15.92827
      H1    17.87173    2.21058  -16.15310
       H    18.37110   -7.63243  -12.36668
       O    17.69315   -7.19908  -12.86997
      H1    17.70135   -6.31990  -12.46421
       H    14.22896   -0.91419  -18.64482
       O    15.19827   -0.99901  -18.62386
      H1    15.35883   -1.68835  -17.95148
       H    14.40351   -6.57267  -13.13441
       O    14.49340   -5.62146  -13.39053
      H1    14.71829   -5.16760  -12.57397
       H    13.73238   -2.79203  -11.36872
       O    14.57644   -3.20664  -11.24549
      H1    15.16102   -2.44794  -11.16484
       H    18.58385   -6.15954  -15.75802
       O    17.69944   -6.47151  -15.59863
      H1    17.68090   -6.54502  -14.63596
       H    15.07562   -6.26048  -16.99472
       O    15.70845   -5.78456  -17.53091
      H1    16.48009   -5.80729  -16.97221
       H    17.30848   -9.13441  -14.69178
       O    17.58318   -9.26604  -15.62037
      H1    17.80552   -8.37466  -15.91002
       H    16.68072   -8.85195  -17.20576
       O    16.22774   -8.71362  -18.04893
      H1    16.14704   -7.74806  -18.08210
       H    17.15207   -3.17917  -18.61671
       O    16.80031   -3.04680  -17.72510
      H1    16.19296   -3.79372  -17.61160
       H    16.35482    0.19009  -18.85961
       O    17.16661    0.72097  -18.88685
      H1    17.92705    0.06246  -18.90248
       H    17.49213   -4.80190  -10.81391
       O    17.24496   -4.55219  -11.73157
      H1    16.65990   -3.75972  -11.62132
       H    17.00488   -1.19485  -12.23186
       O    16.97028   -1.48792  -11.29562
      H1    17.77065   -2.02261  -11.18198
       H    16.90368   -0.46896  -14.81275
       O    16.57333   -0.67870  -13.91187
      H1    15.97237   -1.43742  -14.03697
       H    19.04774    2.02347  -12.98451
       O    18.51870    2.80932  -13.17824
      H1    17.72655    2.64729  -12.63858
       H    14.51751    1.83613  -14.09781
       O    14.47690    1.06905  -13.49792
      H1    15.21007    0.51386  -13.78769

