60
frame 1 | Written by MDAnalysis XYZWriter (release 2.4.3)
       H     4.09133   16.86276  -17.82773
       O     3.26622   17.01453  -18.26375
      H1     3.47076   17.82605  -18.75320
       H     3.97621   11.89634  -13.35982
       O     3.52016   12.39826  -12.69552
      H1     3.52706   13.29093  -13.02161
       H    -3.99896   17.89849  -12.63040
       O    -3.84154   17.12686  -12.05806
      H1    -4.41776   17.29751  -11.30455
       H    -0.58055   18.47578  -10.17271
       O    -0.99269   18.55562  -11.04105
      H1    -1.62375   17.83772  -11.14638
       H     1.91640   18.17444   -7.81395
       O     2.85955   18.25434   -7.90735
      H1     3.11339   19.12868   -7.56950
       H     0.30254   15.88238   -7.86486
       O     0.23103   16.52070   -7.13864
      H1    -0.50226   17.05166   -7.39896
       H     3.19565   15.34853  -12.01134
       O     3.71207   15.10456  -12.76959
      H1     4.54790   14.79956  -12.40574
       H    -0.46598   11.87643  -11.78087
       O    -0.33481   11.99291  -12.70692
      H1    -0.34836   12.96277  -12.93297
       H    -3.49395   14.23026  -14.98133
       O    -2.74891   14.03632  -15.56844
      H1    -2.02861   13.83241  -14.95457
       H    -0.96641   16.94099  -15.02475
       O    -1.45079   17.09595  -15.85170
      H1    -0.84621   16.71631  -16.50481
       H     1.09810   16.24848  -12.11609
       O     1.55522   16.16095  -11.27351
      H1     2.06419   16.97597  -11.18252
       H     0.36757   17.88050  -12.57536
       O     0.58672   17.43493  -13.39007
      H1     1.32746   17.91081  -13.70239
       H     0.93573   15.50681   -9.89386
       O     0.76274   14.90892   -9.11813
      H1    -0.14608   14.58489   -9.30299
       H     4.13854   17.67910  -10.84619
       O     3.43050   18.33747  -10.82586
      H1     3.26540   18.59208   -9.88612
       H    -4.17531   18.49483  -16.32030
       O    -4.58867   18.05498  -15.54295
      H1    -4.08198   17.24869  -15.47463
       H    -2.47078   15.82957  -11.84223
       O    -1.55756   15.49730  -11.84781
      H1    -1.58165   14.62196  -11.43364
       H    -0.55872   15.22208  -13.45248
       O    -0.19120   14.64843  -14.12845
      H1     0.38863   15.20677  -14.65826
       H     1.56586   14.56429  -17.05064
       O     1.29944   15.39907  -16.65686
      H1     2.11687   15.81917  -16.37434
       H    -1.95725   14.87686  -17.10537
       O    -1.40644   14.88085  -17.93185
      H1    -0.83985   14.11686  -17.73817
       H     4.38549   16.63870  -15.63265
       O     3.76640   15.90990  -15.64029
      H1     3.66013   15.68310  -14.68497

