60
frame 1 | Written by MDAnalysis XYZWriter (release 2.4.3)
       H     7.39724  -15.07013   -8.13939
       O     6.81674  -15.51612   -7.49735
      H1     7.45419  -15.92841   -6.86409
       H     7.31841  -15.16207   -0.74279
       O     7.24341  -15.96440   -1.24843
      H1     8.08069  -16.09468   -1.71596
       H     0.97549  -14.67770   -0.48151
       O     0.43434  -14.17076    0.11852
      H1     0.39466  -13.31475   -0.30362
       H     4.32988  -14.45129   -4.04435
       O     3.68382  -15.16054   -3.92327
      H1     3.36087  -15.04700   -3.01841
       H     7.23101  -12.00872   -1.81021
       O     6.53827  -11.40195   -2.08413
      H1     5.75446  -11.95045   -2.13276
       H     4.60950  -16.73800   -3.45753
       O     4.87528  -17.62773   -3.61311
      H1     5.18136  -17.90267   -2.72063
       H     1.25667  -16.77158   -6.49060
       O     1.28665  -17.07763   -7.40740
      H1     1.53446  -16.29768   -7.89254
       H     2.50561  -12.39778   -4.07933
       O     1.56199  -12.55372   -3.96012
      H1     1.55116  -13.48876   -4.07878
       H     4.14728  -12.39706   -1.07355
       O     4.11195  -12.54195   -2.03297
      H1     3.80085  -11.73522   -2.44112
       H    -0.31447  -14.19448   -5.81829
       O    -1.28056  -14.09066   -5.81450
      H1    -1.43254  -13.32798   -5.22182
       H     3.35440  -18.07006   -4.58544
       O     2.39076  -18.01249   -4.71296
      H1     2.09478  -18.91059   -4.82900
       H     8.47735  -14.44022   -2.94520
       O     8.21382  -14.45096   -3.84749
      H1     8.39755  -15.36707   -4.12792
       H     4.34808  -16.89985    0.41384
       O     4.71922  -16.15591   -0.03091
      H1     5.16213  -16.57714   -0.74922
       H     1.94564  -15.83317   -5.04408
       O     1.13407  -15.44228   -5.34508
      H1     0.42726  -16.00554   -5.03859
       H     4.60883  -16.55156   -7.30609
       O     4.37261  -17.49028   -7.54715
      H1     4.66268  -17.88410   -6.72651
       H     6.34114  -19.40728   -5.97156
       O     6.48533  -18.44192   -5.93752
      H1     6.14749  -18.19042   -5.08217
       H     5.70940  -11.73366   -6.00973
       O     4.91261  -11.17826   -6.05716
      H1     5.17739  -10.28581   -5.76453
       H     2.62120  -14.26474   -1.11240
       O     2.60477  -15.20086   -1.48143
      H1     3.14059  -15.67169   -0.82738
       H     1.98315  -18.05954   -2.82874
       O     1.40910  -18.21101   -2.07230
      H1     1.75470  -19.01335   -1.66177
       H     6.45219  -14.32559   -5.83982
       O     5.93800  -13.74833   -5.24571
      H1     6.50284  -13.67473   -4.48716

