60
frame 1 | Written by MDAnalysis XYZWriter (release 2.4.3)
       H    -5.60540  -10.07721   -4.29909
       O    -6.16366   -9.27890   -4.37664
      H1    -6.01278   -9.02475   -5.31235
       H     0.80133   -7.49993   -3.15280
       O     0.85649   -8.41978   -3.42904
      H1     1.19698   -8.35837   -4.34262
       H    -2.17239   -8.79248   -3.26537
       O    -1.78296   -8.94348   -4.12601
      H1    -0.88679   -8.62710   -4.04414
       H    -0.19721  -11.90120   -2.17821
       O    -0.38796  -11.67640   -1.25899
      H1    -1.06521  -10.96682   -1.35084
       H    -4.29972  -12.59719   -3.63446
       O    -5.03550  -12.29748   -4.18648
      H1    -5.19633  -13.05698   -4.76110
       H     0.67669   -5.30077   -5.06652
       O    -0.01410   -5.86339   -4.70392
      H1    -0.57198   -6.13465   -5.42666
       H    -2.70270  -12.46993   -1.77648
       O    -3.10574  -12.98283   -2.50460
      H1    -2.53937  -13.73060   -2.67391
       H    -3.14857   -6.89067   -6.27520
       O    -2.35176   -6.78571   -5.73666
      H1    -2.40704   -7.45616   -5.02377
       H    -3.18524   -9.86058   -1.18439
       O    -2.32587   -9.50794   -1.41775
      H1    -2.08895   -8.87825   -0.74368
       H    -4.93563   -7.85739   -3.48085
       O    -4.29496   -7.81401   -2.74023
      H1    -3.50864   -7.40570   -3.09064
       H     0.09634  -11.66983   -4.73368
       O    -0.87357  -11.59121   -4.80219
      H1    -1.03354  -10.64863   -4.67458
       H    -0.31447  -14.19448   -5.81829
       O    -1.28056  -14.09066   -5.81450
      H1    -1.43254  -13.32798   -5.22182
       H    -2.54425  -11.04735   -7.37979
       O    -1.59487  -11.10418   -7.43260
      H1    -1.27189  -11.45807   -6.60010
       H     3.82961   -9.12586   -2.54065
       O     3.29449   -9.90432   -2.83631
      H1     2.43431   -9.52885   -3.08238
       H     0.90932  -10.42817   -1.07691
       O     1.61826  -10.03217   -0.55443
      H1     2.20627   -9.77698   -1.27102
       H    -1.36191   -3.65234   -5.55431
       O    -1.58004   -4.15640   -6.34727
      H1    -1.99036   -4.94468   -5.95370
       H    -1.04655   -6.09921   -3.22035
       O    -1.70251   -6.43706   -2.59909
      H1    -1.85978   -5.63686   -2.07365
       H    -0.53030   -8.21679   -8.52945
       O    -0.08830   -8.68040   -7.85993
      H1    -0.56246   -9.52264   -7.74468
       H     1.43296   -7.03569   -5.86903
       O     1.69155   -7.99130   -6.00232
      H1     1.11998   -8.34744   -6.65632
       H    -1.87313   -6.86282    0.85467
       O    -1.54196   -7.51786    0.21611
      H1    -1.86220   -7.17885   -0.62510

