60
frame 1 | Written by MDAnalysis XYZWriter (release 2.4.3)
       H   -15.49204   -2.53281    5.53392
       O   -15.68756   -1.99624    4.78141
      H1   -15.14653   -1.19496    4.88665
       H   -17.94983   -4.33390    3.97593
       O   -18.77183   -4.43399    4.50696
      H1   -19.42303   -3.90545    4.02159
       H   -16.81244   -1.42543    7.86969
       O   -16.42672   -1.85209    8.65241
      H1   -17.18401   -2.38775    8.93799
       H   -15.16273    3.22218   11.28452
       O   -15.92370    2.77607   11.70703
      H1   -16.04981    1.97756   11.19402
       H   -14.70339   -2.17255    8.46064
       O   -13.73430   -2.23629    8.46774
      H1   -13.58449   -1.84953    7.59777
       H   -15.92557    0.87034    6.63005
       O   -15.10033    1.31260    6.68410
      H1   -14.42753    0.70029    6.39699
       H   -15.78668    4.38069    8.80753
       O   -16.53521    3.87466    8.46621
      H1   -16.31686    2.96729    8.61550
       H   -17.79745    0.30428   10.32565
       O   -17.37732    0.16246   11.17392
      H1   -16.92857   -0.68839   11.14939
       H   -18.35443   -0.56740    6.88762
       O   -17.45261   -0.60622    6.56859
      H1   -17.47902   -1.36636    5.92303
       H   -15.38635   -5.85854   10.40750
       O   -16.03946   -5.25128   10.80849
      H1   -16.33909   -5.74127   11.56210
       H   -11.72294   -4.72212    9.84247
       O   -11.75600   -3.77627    9.71343
      H1   -12.68650   -3.55340    9.65791
       H   -19.06401    0.28714    3.45873
       O   -18.19443    0.10857    3.80391
      H1   -17.92085   -0.61436    3.20393
       H   -14.35580   -1.36696   11.92421
       O   -15.17145   -1.78000   11.65281
      H1   -15.20385   -1.61795   10.71298
       H   -18.04424   -3.11193   11.25958
       O   -18.32485   -2.59469   10.47919
      H1   -19.27379   -2.74393   10.48027
       H   -14.91720    1.38053    8.47227
       O   -15.08636    1.33100    9.42636
      H1   -14.47393    1.96659    9.80014
       H   -17.28144   -5.12066    9.69749
       O   -17.97514   -5.39744    9.09446
      H1   -18.13138   -4.61958    8.54077
       H   -12.41292   -0.25264    6.82175
       O   -13.05318   -0.76609    6.33783
      H1   -12.53162   -1.25592    5.69794
       H   -15.88965    2.50995    5.48927
       O   -16.38962    2.61489    4.64557
      H1   -17.26388    2.37325    4.93564
       H   -16.74355   -5.64564    3.29095
       O   -16.05073   -4.99555    3.53900
      H1   -16.07410   -4.98059    4.51313
       H   -15.66028   -5.31776    6.63066
       O   -15.70407   -4.40281    6.41738
      H1   -16.00381   -4.01731    7.23558

