60
frame 1 | Written by MDAnalysis XYZWriter (release 2.4.3)
       H     3.74564    8.61705   11.41851
       O     3.95955    9.32881   10.82988
      H1     3.13325    9.48401   10.36211
       H     5.15157    8.15244   15.72089
       O     5.72134    8.08121   14.94416
      H1     6.55007    8.45605   15.23059
       H     2.51063   12.03687   13.49691
       O     2.65985   11.93535   14.44517
      H1     2.16199   12.70456   14.77173
       H    -1.72578   10.83844   17.98888
       O    -2.43421   11.34272   18.40746
      H1    -3.24298   10.83830   18.20938
       H     2.14727   15.70457   13.83898
       O     2.77543   15.37095   14.46570
      H1     2.15571   14.92049   15.07221
       H    -0.26370    7.67677   13.20952
       O     0.50295    7.11709   13.35444
      H1     1.04174    7.30231   12.55232
       H    -1.81998    9.19483   14.87820
       O    -1.40255    8.35617   14.97539
      H1    -0.46778    8.55709   15.12333
       H     2.63535    7.84578   16.09781
       O     2.58536    6.90648   16.09101
      H1     3.07853    6.63347   15.30350
       H     1.38257   10.76061   15.32179
       O     0.88225   10.17747   15.91430
      H1     1.23070   10.42751   16.77028
       H     4.73588   11.68064   14.76908
       O     5.44803   12.28224   14.97589
      H1     6.20009   11.70698   14.87857
       H    -1.55059   12.96095   17.04611
       O    -1.23847   13.86247   16.86373
      H1    -1.10600   13.83824   15.90627
       H    -3.85887   10.55245   15.25542
       O    -3.10027   10.44243   14.65365
      H1    -3.46325   10.35342   13.75653
       H     2.02343   11.19456   11.46539
       O     2.18580   12.12927   11.63025
      H1     1.39991   12.59083   11.30572
       H    -2.22043   11.74460   13.93260
       O    -1.92051   12.57482   13.55939
      H1    -2.75575   13.08646   13.52991
       H     2.96583   11.72218   18.01891
       O     2.45990   10.88245   18.09355
      H1     3.01779   10.26924   17.62242
       H     5.06855    9.11990   18.05235
       O     4.59044    8.75450   17.30729
      H1     4.52908    7.78869   17.48641
       H     2.22518   13.94559   17.10827
       O     1.62041   13.69637   16.35692
      H1     0.76989   13.82010   16.77136
       H    -0.61113    7.26979   17.21004
       O    -0.52751    7.55953   18.12493
      H1    -1.04357    6.88530   18.58792
       H     0.71710    6.32782   15.68402
       O     0.04614    5.82867   16.13744
      H1     0.52845    5.05343   16.41442
       H    -1.29116   11.13866   10.79825
       O    -0.98964   10.69851   11.61769
      H1    -1.41937   11.22446   12.26300

