60
frame 1 | Written by MDAnalysis XYZWriter (release 2.4.3)
       H    16.40112   -0.16851  -10.22491
       O    16.02491    0.62634   -9.80088
      H1    15.05443    0.50718   -9.86385
       H    12.89310    3.59234   -6.04233
       O    12.17900    4.09316   -6.41903
      H1    11.58735    4.28602   -5.64017
       H    16.31288    0.05055   -3.96781
       O    15.62604    0.70683   -4.11109
      H1    14.89894    0.37166   -3.51822
       H     9.87618    2.48172   -4.71033
       O     9.95002    2.55932   -5.65669
      H1    10.78986    2.16602   -5.86010
       H    12.80259   -0.42225   -2.82316
       O    13.14307    0.32573   -2.33664
      H1    12.58171    1.08472   -2.58656
       H    17.23748    1.00677   -6.76842
       O    16.36935    1.30926   -7.10047
      H1    16.41276    1.22382   -8.07419
       H    13.09930    1.48954   -5.83981
       O    12.42881    1.13688   -6.45262
      H1    12.76119    0.24422   -6.67814
       H    15.80937   -0.31210   -6.24175
       O    15.68128   -1.25265   -6.34950
      H1    15.63293   -1.58689   -5.45969
       H     9.06183   -0.88567   -5.11387
       O     9.20220   -1.05811   -4.16149
      H1    10.12778   -1.38851   -4.13488
       H     8.08917    0.66621   -5.79552
       O     8.46219    0.00949   -6.40207
      H1     9.11094    0.54219   -6.87261
       H    11.78917   -2.77477   -2.70725
       O    12.01635   -2.01365   -3.26039
      H1    12.46249   -2.42035   -4.01182
       H    12.13830   -1.58654   -8.01098
       O    13.02026   -1.37903   -7.66976
      H1    13.61052   -1.86228   -8.23515
       H    11.45805   -2.02298  -10.99327
       O    12.17282   -1.51435  -11.34494
      H1    12.32279   -0.77399  -10.72603
       H    13.00272   -3.97785   -5.79437
       O    13.46270   -3.24459   -5.41480
      H1    13.57491   -2.64460   -6.14799
       H    11.72870    3.64403   -9.75415
       O    11.73283    3.06585   -8.95820
      H1    11.97151    3.66620   -8.23084
       H    12.18258    1.08394   -9.44622
       O    12.93660    0.48489   -9.61899
      H1    13.06394    0.00741   -8.76162
       H    10.14274   -1.31630   -8.21885
       O    10.39995   -2.24259   -8.30433
      H1    10.31755   -2.57687   -7.39571
       H    15.34122    2.78834   -7.65631
       O    14.92013    3.45318   -8.24008
      H1    14.05980    3.07542   -8.36404
       H    10.03617    0.83317   -9.43031
       O    10.27770    0.67519   -8.52349
      H1    10.85806    1.41428   -8.29309
       H    14.71368    3.57045   -4.88629
       O    14.24446    2.78072   -5.13164
      H1    14.78307    2.09251   -4.72152

