60
frame 2 | Written by MDAnalysis XYZWriter (release 2.4.3)
       H    15.99972    4.85757   18.47013
       O    15.36032    4.55382   17.83555
      H1    15.23358    5.31210   17.31712
       H    10.38635    6.35434   17.21737
       O     9.99078    7.17765   17.35469
      H1    10.57690    7.82919   16.99883
       H    13.37655    4.68183   17.93253
       O    12.44033    4.54280   17.84355
      H1    12.37443    3.83461   17.21675
       H    10.80545    5.34343   13.77897
       O    10.51504    6.25446   13.90397
      H1     9.70961    6.09466   14.43966
       H    16.38172    1.00385   18.17522
       O    16.31246    0.51831   17.36576
      H1    16.34297   -0.40939   17.53313
       H    12.07191    0.98239   14.46243
       O    12.08086    0.02793   14.14040
      H1    12.22876    0.09608   13.20296
       H    15.39822    2.20109   12.61104
       O    15.49424    2.68645   13.43986
      H1    15.22684    2.03734   14.10434
       H    13.74019    6.61678   14.82277
       O    13.23776    6.45219   14.01668
      H1    12.31631    6.27475   14.20804
       H     9.91146    7.78883   15.03133
       O     9.60143    8.67014   15.03008
      H1     8.70691    8.58149   14.63825
       H     7.76322    1.91884   17.71555
       O     8.51223    2.35786   18.16706
      H1     8.55985    3.19236   17.72281
       H     8.86239    4.32112   14.45741
       O     8.58177    4.89113   15.23464
      H1     7.70376    5.22214   14.90649
       H    14.54731    1.98931   19.22432
       O    15.10733    1.53179   19.83568
      H1    14.95374    0.62944   19.58686
       H    13.41685   -0.27910   18.09795
       O    12.67432   -0.47048   17.50350
      H1    12.63797   -1.43874   17.63281
       H    13.49499    5.10418   12.88780
       O    13.68779    4.41256   12.26339
      H1    14.38009    3.91281   12.70342
       H    10.24594    3.14834   12.57060
       O     9.42627    3.56132   12.86451
      H1     8.88826    2.81216   12.81322
       H    10.06077    1.49125   17.32919
       O    10.77998    1.41535   16.67391
      H1    11.34210    0.67389   16.96719
       H    15.11717    0.98297   16.16966
       O    14.41332    1.30684   15.57080
      H1    14.15916    0.52725   15.11199
       H    16.55891    2.93634   14.71762
       O    17.04916    3.16227   15.52921
      H1    16.46243    3.50001   16.20647
       H     8.97368    0.39220   14.40760
       O     8.92783   -0.09156   15.23461
      H1     9.45842    0.44270   15.84259
       H    15.29765    7.27550   16.09007
       O    14.59328    6.78907   16.55067
      H1    14.14958    7.15986   17.28527

