60
frame 1 | Written by MDAnalysis XYZWriter (release 2.4.3)
       H    11.01679   -9.83617   -7.29296
       O    10.86687  -10.78549   -7.16845
      H1    10.87478  -11.14986   -8.08568
       H     8.05113   -6.78788  -11.38612
       O     8.13384   -6.61297  -12.34420
      H1     7.25822   -6.91370  -12.68457
       H     9.34531   -9.60382  -10.52485
       O    10.27890   -9.49806  -10.86334
      H1    10.27595   -8.74655  -11.48652
       H     8.13793  -12.53212   -7.70620
       O     8.12616  -11.58962   -7.43705
      H1     9.02586  -11.28933   -7.55865
       H     5.81224   -6.75895   -8.53008
       O     5.69105   -6.24210   -7.72851
      H1     5.15603   -6.83948   -7.20532
       H     3.66507   -7.80406   -5.98719
       O     4.52398   -8.16395   -5.82675
      H1     4.73125   -7.98510   -4.91000
       H     6.22957   -8.29071  -10.07150
       O     6.75434   -7.45625   -9.94371
      H1     7.51908   -7.81707   -9.47526
       H    10.74660   -7.05839   -3.45644
       O     9.97456   -7.49495   -3.92395
      H1     9.74395   -8.23457   -3.34987
       H     3.46099   -9.49752   -8.10116
       O     4.17430   -9.30400   -8.74824
      H1     3.79668   -8.86459   -9.52495
       H     5.27649   -5.07124   -9.04569
       O     4.71452   -4.70754   -9.73847
      H1     3.84903   -4.66585   -9.34880
       H     8.05415   -7.92785   -7.64472
       O     8.77019   -7.43801   -8.04036
      H1     8.35616   -6.54219   -8.14507
       H     6.19502   -9.52629   -8.01385
       O     6.61136   -9.17429   -7.24277
      H1     5.91001   -8.67256   -6.79756
       H     7.84298  -11.38474  -10.24956
       O     7.84571  -10.46147   -9.96948
      H1     7.85844  -10.55680   -9.01580
       H     7.53730   -4.91051   -7.64860
       O     8.25262   -4.77503   -8.26759
      H1     7.81678   -4.20760   -8.91538
       H    10.75438   -7.82400   -5.56335
       O    11.18917   -8.09239   -6.37687
      H1    10.50483   -7.90497   -6.99084
       H     6.60935  -10.34623   -3.99033
       O     6.49214   -9.40820   -4.28854
      H1     6.77757   -9.44645   -5.19365
       H     7.18902   -5.04485   -4.64851
       O     6.60372   -5.76482   -4.75394
      H1     7.09079   -6.45277   -4.27202
       H    11.48809   -5.44139   -8.65536
       O    10.84957   -5.12382   -9.30405
      H1    10.20373   -4.66922   -8.77292
       H     8.43162  -12.79780   -4.48914
       O     8.55168  -11.83194   -4.61207
      H1     8.61486  -11.62607   -5.52632
       H     5.70940  -11.73366   -6.00973
       O     4.91261  -11.17826   -6.05716
      H1     5.17739  -10.28581   -5.76453

