60
frame 1 | Written by MDAnalysis XYZWriter (release 2.4.3)
       H    -4.21157   -6.36323    2.21823
       O    -3.91630   -5.69526    1.59337
      H1    -3.98802   -4.91040    2.12977
       H    -2.17239   -8.79248   -3.26537
       O    -1.78296   -8.94348   -4.12601
      H1    -0.88679   -8.62710   -4.04414
       H    -0.19721  -11.90120   -2.17821
       O    -0.38796  -11.67640   -1.25899
      H1    -1.06521  -10.96682   -1.35084
       H    -3.39972  -10.83579    4.63221
       O    -3.43530  -11.36502    3.81200
      H1    -2.77384  -10.88923    3.26370
       H    -8.60137  -10.74861    2.05822
       O    -8.25208  -11.59859    2.33241
      H1    -7.64514  -11.84621    1.62650
       H    -4.78647   -9.85964    1.11258
       O    -4.51108  -10.33841    0.31675
      H1    -3.68819  -10.80528    0.54246
       H    -5.82193   -9.01777    2.92796
       O    -5.08056   -8.65427    2.44084
      H1    -4.43303   -8.43406    3.10196
       H    -2.70270  -12.46993   -1.77648
       O    -3.10574  -12.98283   -2.50460
      H1    -2.53937  -13.73060   -2.67391
       H    -7.44416   -8.69867   -0.47856
       O    -7.52649   -8.01205    0.20385
      H1    -6.77842   -7.44054   -0.06458
       H    -3.18524   -9.86058   -1.18439
       O    -2.32587   -9.50794   -1.41775
      H1    -2.08895   -8.87825   -0.74368
       H    -4.93563   -7.85739   -3.48085
       O    -4.29496   -7.81401   -2.74023
      H1    -3.50864   -7.40570   -3.09064
       H    -4.85433   -6.94937   -1.11482
       O    -5.35562   -6.26931   -0.64953
      H1    -4.84007   -6.05335    0.10875
       H    -1.47186   -9.67014    2.06368
       O    -1.69113   -9.46937    3.00117
      H1    -0.94639   -9.83596    3.54430
       H    -2.63654  -13.02544    0.51835
       O    -2.32022  -12.11008    0.59719
      H1    -1.43024  -12.19934    0.23845
       H    -5.60920  -11.82429    0.71358
       O    -6.14195  -12.63093    0.85949
      H1    -6.11152  -13.07890   -0.01512
       H    -8.36921   -8.51299    1.86358
       O    -8.83442   -8.65324    2.70759
      H1    -9.76639   -8.91441    2.47502
       H    -8.66983   -9.61747   -2.29216
       O    -7.75080   -9.59813   -2.04450
      H1    -7.37372   -8.95906   -2.65542
       H    -1.87313   -6.86282    0.85467
       O    -1.54196   -7.51786    0.21611
      H1    -1.86220   -7.17885   -0.62510
       H    -6.77716  -11.08009    3.38778
       O    -5.99790  -10.83920    3.93453
      H1    -5.21970  -11.07792    3.42513
       H    -6.15181  -12.24257   -2.71089
       O    -6.92666  -12.33705   -2.13041
      H1    -7.22194  -11.43391   -1.97282

