60
frame 0 | Written by MDAnalysis XYZWriter (release 2.4.3)
       H    -2.64067  -10.04963  -14.32809
       O    -2.46197   -9.37273  -13.60429
      H1    -2.98812   -9.73666  -12.87267
       H    -6.39475   -7.70460  -11.97379
       O    -6.68642   -8.05831  -11.12658
      H1    -6.01781   -7.62975  -10.56123
       H    -1.83568  -11.53431  -15.85956
       O    -2.72607  -11.57061  -15.49992
      H1    -2.63904  -12.27814  -14.82128
       H    -8.87087   -7.10111  -12.14760
       O    -9.34425   -6.96796  -12.91088
      H1    -9.30270   -5.98916  -13.07822
       H    -6.31670   -5.40191  -13.48114
       O    -5.77827   -5.42031  -12.70707
      H1    -6.48079   -5.25563  -12.06339
       H    -2.96244   -5.98880  -12.43694
       O    -3.33722   -6.52165  -11.67819
      H1    -3.92807   -5.90415  -11.27944
       H    -6.45080   -8.97398  -13.87989
       O    -7.21411   -9.50181  -13.74292
      H1    -7.96156   -8.83498  -13.87963
       H    -2.79704  -10.93241  -11.04616
       O    -3.59166  -11.09478  -11.57763
      H1    -4.29925  -10.67381  -11.04699
       H    -9.50909   -4.56753  -14.69832
       O    -8.59412   -4.72813  -14.42008
      H1    -8.20564   -5.23298  -15.13492
       H    -2.65376   -7.60493  -16.81405
       O    -3.41418   -6.97990  -16.98497
      H1    -4.09812   -7.68320  -16.97320
       H    -5.90973  -11.31232  -10.48998
       O    -5.80028  -10.47220   -9.98519
      H1    -6.48426   -9.87798  -10.51426
       H    -7.57718  -11.18430  -12.71526
       O    -8.14419  -11.66991  -12.09497
      H1    -7.67366  -12.56212  -12.02674
       H    -8.46398   -7.63361  -17.74879
       O    -7.65121   -7.98199  -17.34703
      H1    -8.04445   -8.27544  -16.52082
       H    -2.04279   -7.01321  -10.61771
       O    -1.41511   -7.39636   -9.94950
      H1    -1.59262   -8.33176  -10.02652
       H    -3.89441   -8.46481  -13.90570
       O    -4.71174   -7.92455  -13.87422
      H1    -4.52371   -7.21382  -13.25665
       H    -3.99753   -3.03789  -13.78954
       O    -4.93695   -2.97629  -13.47403
      H1    -5.01605   -3.87070  -13.13331
       H    -0.93307   -9.99821  -13.04169
       O    -0.15094  -10.51607  -12.96213
      H1     0.41505  -10.06877  -12.27704
       H    -4.33156  -10.32992  -18.34316
       O    -4.94569   -9.66767  -17.97201
      H1    -5.06397   -8.97349  -18.62522
       H    -5.35573   -5.22392  -17.25968
       O    -5.30806   -4.47643  -17.89569
      H1    -4.32414   -4.61980  -18.02894
       H    -6.56615   -6.91792  -16.01002
       O    -6.19219   -6.12263  -15.64953
      H1    -5.45746   -6.39731  -15.11378

