60
frame 1 | Written by MDAnalysis XYZWriter (release 2.4.3)
       H    16.40112   -0.16851  -10.22491
       O    16.02491    0.62634   -9.80088
      H1    15.05443    0.50718   -9.86385
       H    12.89310    3.59234   -6.04233
       O    12.17900    4.09316   -6.41903
      H1    11.58735    4.28602   -5.64017
       H    15.36558    4.50780   -9.69530
       O    15.24693    4.91911  -10.55526
      H1    15.39515    4.13445  -11.09237
       H    16.31288    0.05055   -3.96781
       O    15.62604    0.70683   -4.11109
      H1    14.89894    0.37166   -3.51822
       H    17.08972    1.70932   -5.16199
       O    17.97422    1.90779   -4.85728
      H1    18.11403    1.54062   -3.96850
       H    16.50554    6.95671   -7.86146
       O    17.41248    6.76646   -7.56081
      H1    17.38511    5.98414   -7.00602
       H    14.55572    5.24978   -7.88079
       O    14.55722    6.06996   -7.39483
      H1    13.67114    6.41745   -7.56362
       H    14.65438    6.00123   -4.46688
       O    15.21068    5.29713   -4.82101
      H1    15.12069    5.47672   -5.74729
       H    12.43362    4.94006  -11.97355
       O    12.39250    5.07945  -11.02764
      H1    13.32921    5.09379  -10.76432
       H    16.42618    4.06359   -3.70983
       O    16.58195    3.67939   -2.82937
      H1    16.74240    2.75355   -3.03658
       H    11.30765    7.00822   -8.25810
       O    12.03393    6.57698   -7.80118
      H1    11.61731    5.74047   -7.52871
       H    17.23748    1.00677   -6.76842
       O    16.36935    1.30926   -7.10047
      H1    16.41276    1.22382   -8.07419
       H    13.09930    1.48954   -5.83981
       O    12.42881    1.13688   -6.45262
      H1    12.76119    0.24422   -6.67814
       H    16.22631    1.83041  -11.16709
       O    16.10077    2.55165  -11.77969
      H1    15.32375    2.19022  -12.25463
       H    15.80937   -0.31210   -6.24175
       O    15.68128   -1.25265   -6.34950
      H1    15.63293   -1.58689   -5.45969
       H    11.72870    3.64403   -9.75415
       O    11.73283    3.06585   -8.95820
      H1    11.97151    3.66620   -8.23084
       H    12.18258    1.08394   -9.44622
       O    12.93660    0.48489   -9.61899
      H1    13.06394    0.00741   -8.76162
       H    15.34122    2.78834   -7.65631
       O    14.92013    3.45318   -8.24008
      H1    14.05980    3.07542   -8.36404
       H    10.03617    0.83317   -9.43031
       O    10.27770    0.67519   -8.52349
      H1    10.85806    1.41428   -8.29309
       H    14.71368    3.57045   -4.88629
       O    14.24446    2.78072   -5.13164
      H1    14.78307    2.09251   -4.72152

