60
frame 1 | Written by MDAnalysis XYZWriter (release 2.4.3)
       H   -15.92132    9.24756  -11.31038
       O   -15.44918    9.71502  -12.00232
      H1   -14.59823    9.97408  -11.65294
       H   -15.58204    6.39162  -12.34744
       O   -16.15262    6.93761  -12.89433
      H1   -16.06405    7.79666  -12.46900
       H   -14.04724    8.78463  -14.66124
       O   -14.30330    7.83514  -14.79473
      H1   -14.92327    7.65383  -14.07163
       H   -17.97977    5.30623  -10.48270
       O   -17.68132    5.72681   -9.67549
      H1   -17.69637    4.99324   -9.02930
       H   -12.80433    7.69314  -14.05583
       O   -11.96015    7.63565  -13.61139
      H1   -12.17661    7.43016  -12.69744
       H   -13.60712   11.31606  -14.60100
       O   -14.13582   10.77836  -15.16610
      H1   -14.61758   11.42824  -15.70063
       H   -18.71037    6.66811  -13.29271
       O   -19.10225    7.52812  -13.53997
      H1   -18.31713    8.08943  -13.60080
       H   -18.31802   13.19469  -15.85183
       O   -17.39656   13.49376  -15.79888
      H1   -17.03837   12.96386  -15.08841
       H   -18.03700   11.67321  -12.40262
       O   -17.15043   11.87573  -12.08406
      H1   -16.73197   11.03069  -12.12664
       H   -16.39145    8.55088  -18.20921
       O   -16.43933    8.52242  -19.15846
      H1   -15.55106    8.74601  -19.52090
       H   -14.48460    6.63425   -9.92706
       O   -14.29226    7.57217   -9.73703
      H1   -14.17061    7.60684   -8.76210
       H   -14.76674    4.86677  -17.23407
       O   -15.71545    4.95165  -17.11637
      H1   -15.98266    4.09228  -17.48914
       H   -18.66699    6.57466  -15.11013
       O   -18.82693    6.08693  -15.90896
      H1   -18.01508    5.56891  -15.98847
       H   -16.12765    5.03091  -15.42225
       O   -16.44578    4.79433  -14.54070
      H1   -16.38044    5.57626  -14.00909
       H   -16.61461    8.13670   -7.30833
       O   -17.24119    8.84742   -7.52821
      H1   -17.59682    8.52877   -8.35687
       H   -14.24050    5.18954  -11.72585
       O   -14.99229    5.34920  -11.12924
      H1   -15.40043    4.46874  -11.14866
       H   -15.93198   10.32328  -14.63608
       O   -16.89254   10.33004  -14.75880
      H1   -17.04677    9.82864  -15.57029
       H   -17.36412   11.55815   -9.88520
       O   -17.48674   11.57472   -8.94243
      H1   -17.31730   10.67444   -8.68750
       H   -18.32582    7.61691  -16.71524
       O   -17.83770    8.44425  -16.90619
      H1   -18.49389    9.12623  -17.03377
       H   -18.00393    8.25428  -10.51115
       O   -17.06926    8.31878  -10.36530
      H1   -16.76002    7.43303  -10.15546

