60
frame 1 | Written by MDAnalysis XYZWriter (release 2.4.3)
       H   -15.78981    8.23613   10.30028
       O   -15.10731    8.90989   10.42443
      H1   -14.30571    8.32531   10.34451
       H   -15.90251   11.96748   11.44076
       O   -15.59438   11.88076   10.53621
      H1   -15.20163   11.01855   10.56246
       H   -14.02896   12.47942    9.81489
       O   -13.25083   13.03044    9.76712
      H1   -13.14452   13.20580    8.81307
       H   -14.10701    7.65874    5.15995
       O   -15.02747    7.86957    5.41329
      H1   -15.29026    7.06917    5.82498
       H   -18.46208    7.87148    8.99155
       O   -17.75752    7.53479    9.54771
      H1   -18.05219    7.77501   10.43124
       H   -13.93581   12.43471    6.94860
       O   -12.99789   12.64311    7.04000
      H1   -12.58043   11.80707    6.84535
       H   -10.87878    6.44912    9.64712
       O   -10.12597    5.95758    9.29504
      H1    -9.36907    6.46337    9.59630
       H   -12.07548    6.59819    4.62535
       O   -12.49761    7.47924    4.66419
      H1   -12.63746    7.76716    3.73513
       H   -18.36854   11.54563   10.98382
       O   -18.26661   10.90392   10.30037
      H1   -17.28062   10.89073   10.19181
       H   -10.68348   10.14483   10.36073
       O   -10.38474    9.33343    9.97931
      H1   -10.23503    9.52817    9.02008
       H   -10.09525    9.70755    6.99241
       O    -9.28195    9.50194    7.48444
      H1    -8.61865    9.44092    6.80045
       H   -12.80118    7.83362    9.00276
       O   -12.44068    7.54798    9.84209
      H1   -11.76011    8.24078   10.04852
       H   -17.75576    8.13075    4.20980
       O   -17.15190    8.69947    3.76520
      H1   -16.30360    8.54993    4.20906
       H   -13.42229    6.48160   11.29626
       O   -14.12766    5.83895   11.43884
      H1   -14.57208    6.03833   12.27878
       H   -12.52545    9.82810    7.02691
       O   -11.88924   10.30438    6.48646
      H1   -11.78911    9.72371    5.72309
       H   -17.42644    9.64274    7.25705
       O   -16.68688    9.60627    7.89282
      H1   -17.06745    9.06989    8.57633
       H   -13.95917    5.96137    8.09417
       O   -14.55322    5.54533    8.74032
      H1   -14.28981    5.87648    9.59380
       H   -16.05161   11.04946    6.87040
       O   -15.75368   11.93807    6.71840
      H1   -15.22622   11.80707    5.92824
       H   -15.12634   11.63277    3.99886
       O   -14.24824   11.35875    4.35016
      H1   -13.65884   12.05750    4.06439
       H   -14.37384    9.16583    8.25407
       O   -13.67062    8.75126    7.72752
      H1   -14.16907    8.53673    6.90254

