60
frame 1 | Written by MDAnalysis XYZWriter (release 2.4.3)
       H    -7.25773   12.09932   10.20958
       O    -7.75213   12.76291   10.70535
      H1    -8.63673   12.57742   10.45258
       H    -5.65847    9.77583   10.16510
       O    -5.70161   10.72831   10.35802
      H1    -5.27027   11.19688    9.65037
       H    -9.71931   11.64580    5.00720
       O    -9.55167   12.52225    4.68666
      H1    -9.68952   13.07662    5.45669
       H    -5.50926   12.15890    5.36641
       O    -5.53721   11.57072    6.13312
      H1    -6.19299   10.87781    5.92781
       H    -5.11606   14.09959    3.19084
       O    -5.50385   13.41769    3.76286
      H1    -6.37580   13.31621    3.35248
       H    -6.91526    8.56559    6.12435
       O    -7.14571    9.41796    5.77579
      H1    -7.20484    9.23830    4.81756
       H   -10.09525    9.70755    6.99241
       O    -9.28195    9.50194    7.48444
      H1    -8.61865    9.44092    6.80045
       H    -3.50561   15.61019    4.59193
       O    -3.13640   15.26303    5.40951
      H1    -3.36044   14.31787    5.44810
       H    -6.60676   10.97371    1.74671
       O    -7.39039   11.09791    1.22078
      H1    -7.20775   10.43458    0.55490
       H    -6.35589   12.69208    7.29816
       O    -6.67733   13.53923    7.65856
      H1    -6.25465   14.20717    7.09940
       H    -8.53262   13.42918    3.44306
       O    -7.97010   13.47925    2.65783
      H1    -7.83921   14.44545    2.61665
       H    -1.76982   12.70574    3.29307
       O    -1.96490   13.64176    3.51539
      H1    -2.10358   13.59401    4.48851
       H    -4.88960    8.84117    3.07693
       O    -4.51709    8.14248    3.62281
      H1    -3.55316    8.32635    3.63599
       H    -4.32547    8.25109    5.31516
       O    -4.11443    8.34251    6.26878
      H1    -3.16976    8.53100    6.29076
       H    -3.03266   12.11528    6.73900
       O    -2.44701   12.58868    6.15326
      H1    -1.57267   12.55235    6.59116
       H    -3.20107   10.67522    3.69721
       O    -2.44820   10.56904    4.31890
      H1    -2.56085   11.26437    4.97248
       H    -3.98244   13.44151    9.41801
       O    -4.37531   12.77809    8.84575
      H1    -5.21610   13.19757    8.61387
       H    -6.51589   16.27035    6.87956
       O    -5.81810   15.77651    6.41097
      H1    -5.05045   15.75078    6.97031
       H    -4.13035   11.22801    1.82040
       O    -4.58542   11.07481    2.65327
      H1    -4.96183   11.92946    2.88371
       H    -1.24045   11.30096    8.44625
       O    -1.50296   11.99544    9.09443
      H1    -2.45298   12.03936    9.01340

