60
frame 0 | Written by MDAnalysis XYZWriter (release 2.4.3)
       H    -8.83353   19.48413   17.37205
       O    -9.69447   19.31252   16.94612
      H1    -9.85858   18.38873   17.11875
       H   -10.70480   12.31305   13.42456
       O   -10.21286   13.09077   13.12008
      H1   -10.07671   13.61762   13.93128
       H   -11.23390   13.93265   16.91705
       O   -12.14540   14.16274   16.70865
      H1   -12.45523   14.16786   17.61432
       H    -8.55229   10.20099   18.50475
       O    -8.10137   10.70586   19.19019
      H1    -8.45151   11.58338   19.16089
       H    -9.21101   12.74958   17.76387
       O    -9.21591   13.17074   18.65189
      H1    -9.93881   12.74362   19.13447
       H    -5.21501    9.62571   18.64014
       O    -5.47682   10.58145   18.64741
      H1    -6.42786   10.51847   18.46693
       H    -5.12158   16.25761   18.09984
       O    -5.63739   16.18034   17.29589
      H1    -6.17829   16.98903   17.28298
       H    -7.25649   18.69648   16.01301
       O    -6.40421   18.54953   16.42331
      H1    -5.75556   18.94823   15.85035
       H    -6.06429   13.65561   15.91282
       O    -5.93880   13.13620   16.72491
      H1    -5.64144   13.76980   17.37037
       H   -13.20741   10.60679   18.11654
       O   -13.19159   11.54074   18.36060
      H1   -13.94607   11.67626   18.98312
       H   -14.42595   12.03078   17.04343
       O   -14.75515   12.66086   16.38691
      H1   -14.06890   13.35886   16.38860
       H    -9.29881   15.40751   18.06233
       O    -9.51492   16.21974   17.61711
      H1    -9.60648   15.88790   16.71865
       H   -13.54530   16.71584   15.91843
       O   -12.69201   16.45640   15.48054
      H1   -12.47862   15.56173   15.84704
       H   -12.06313   17.28742   18.10624
       O   -11.64270   16.88336   18.88113
      H1   -10.79143   16.60515   18.52776
       H    -8.78552   17.26636   13.09792
       O    -7.83170   17.28061   12.96220
      H1    -7.68189   16.67733   12.20563
       H   -10.80064   17.50981   12.92923
       O   -10.36620   16.70176   13.24607
      H1   -10.47293   16.11222   12.48952
       H    -6.93917   11.76238   16.02175
       O    -7.39904   10.94363   15.81355
      H1    -7.18691   10.85088   14.86082
       H    -9.24058   11.67542   15.87888
       O   -10.19219   11.64260   16.06619
      H1   -10.31361   10.97857   16.77135
       H   -10.12879   15.36418   14.99135
       O    -9.51721   14.71200   15.35977
      H1    -8.66123   14.96065   14.97435
       H    -5.81641   15.89009   15.51829
       O    -5.78745   15.29515   14.76054
      H1    -5.61756   15.88591   14.01920

