60
frame 1 | Written by MDAnalysis XYZWriter (release 2.4.3)
       H    12.04385    5.35283    2.11397
       O    11.64490    4.44613    2.19668
      H1    11.74224    4.23343    3.13012
       H    12.22069    3.35977    4.98774
       O    11.45058    3.94402    4.87130
      H1    11.66364    4.73707    5.36720
       H     8.10997    6.59877    5.05916
       O     9.03119    6.42710    5.35357
      H1     8.95993    6.28228    6.29053
       H    14.31053    1.30206    3.42600
       O    14.80999    0.76844    2.81903
      H1    14.21603    0.05853    2.51249
       H    13.04278    7.89228    2.52997
       O    12.54350    7.12041    2.67968
      H1    12.25457    7.18136    3.62100
       H     8.36863    2.15762    0.78661
       O     9.03181    2.28122    0.12606
      H1     9.83237    1.93522    0.52211
       H     9.29377    7.10525    2.44914
       O     9.60109    7.98106    2.14594
      H1    10.55663    7.86560    2.18754
       H    12.52905    0.68479    4.57395
       O    11.73972    0.80921    4.01948
      H1    11.10042    1.33335    4.51719
       H    13.99561    6.28344    2.10913
       O    14.60464    5.53473    2.08356
      H1    14.93236    5.62997    1.17028
       H    11.98209    7.77420    5.36488
       O    11.68640    6.88014    5.35288
      H1    10.72096    6.95380    5.26131
       H     7.61552    4.60382    1.24555
       O     6.94582    4.83676    0.56734
      H1     6.74237    5.73875    0.79032
       H    15.79384    6.09604    3.44018
       O    16.57096    6.53053    3.83993
      H1    16.33042    7.43998    3.96486
       H    14.35723    3.37950    5.26958
       O    13.79639    2.68831    4.82932
      H1    13.90993    1.96069    5.43496
       H     8.95766    4.74638   -0.65692
       O     9.79620    5.10502   -1.00841
      H1     9.74913    4.84501   -1.93791
       H    14.80374    3.97956   -0.33617
       O    15.38318    4.67270   -0.69468
      H1    15.75795    4.25342   -1.49604
       H    12.84406    3.33003   -0.58373
       O    13.25943    3.16215    0.24759
      H1    12.85137    3.78037    0.86230
       H    11.57546    1.37177    2.31884
       O    11.57124    1.49654    1.36119
      H1    12.28652    2.10383    1.22078
       H     8.63447    5.42702    3.44082
       O     8.83577    5.45324    2.49911
      H1     9.64738    4.92981    2.39523
       H    10.04903    2.87548    5.63937
       O     9.34588    2.36621    5.23678
      H1     9.42028    1.49690    5.73656
       H     8.44430    2.08213    3.70066
       O     7.93087    1.94895    2.89101
      H1     7.01182    2.23752    3.09678

