60
frame 1 | Written by MDAnalysis XYZWriter (release 2.4.3)
       H     7.48263    7.96967  -14.49491
       O     7.87717    7.51531  -15.25864
      H1     8.71046    7.13811  -14.90601
       H     3.95865    2.79830  -13.78272
       O     3.08685    3.06416  -14.01356
      H1     2.97255    3.74941  -13.37903
       H    10.82224    2.06985  -12.80405
       O    11.62383    2.46602  -13.16138
      H1    12.36728    1.90859  -12.82479
       H     5.17932    3.55901   -9.95850
       O     4.87691    2.60742   -9.76233
      H1     5.26080    2.40538   -8.92069
       H    10.42968    0.96761  -15.67128
       O    10.50317    0.09253  -16.11319
      H1    11.29689   -0.26386  -15.71400
       H     6.52008    2.22448  -10.61834
       O     7.44944    2.27576  -10.39488
      H1     7.63900    1.40311  -10.03816
       H     8.52709    0.22648  -16.84053
       O     7.65790    0.47913  -16.53485
      H1     7.67268    0.23827  -15.60511
       H     8.86974    4.09517   -9.71428
       O     8.59323    4.93967  -10.07967
      H1     9.05416    5.61883   -9.58518
       H     5.15502    4.87593  -10.95273
       O     5.72549    5.14548  -10.22799
      H1     6.62891    5.04124  -10.53301
       H     9.26937    5.62276  -11.72045
       O     9.24700    5.95777  -12.63694
      H1     8.71176    5.32335  -13.13570
       H     6.65021    3.99494  -13.41343
       O     6.20606    4.67335  -13.92641
      H1     5.92649    4.15303  -14.68995
       H     8.58197   -1.83484  -11.69848
       O     8.37578   -1.10869  -12.29976
      H1     7.42183   -0.99755  -12.19217
       H     9.00092    7.82128  -10.36892
       O     8.23747    7.83270  -10.94000
      H1     8.53206    7.20400  -11.60899
       H     7.82542    2.48646  -13.28224
       O     8.12023    3.27771  -12.79493
      H1     8.09925    2.96029  -11.85720
       H     6.29642    3.29775  -16.91404
       O     5.72649    3.00337  -16.17468
      H1     6.21256    2.35650  -15.64434
       H     9.13405    2.91223  -16.01345
       O     9.76676    2.64486  -15.32965
      H1     9.35198    2.99393  -14.53749
       H     3.95479    6.06290  -12.43169
       O     3.99749    5.07975  -12.55783
      H1     4.67247    5.05750  -13.22939
       H     9.36877    0.16119  -11.67082
       O    10.12543    0.68266  -11.35809
      H1    10.83722    0.08130  -11.52970
       H    12.55449    4.57351  -15.11742
       O    11.82033    4.46467  -15.74748
      H1    11.44843    3.61302  -15.53927
       H     5.05244    1.02509  -13.83990
       O     5.73749    1.58645  -13.47264
      H1     6.01684    1.05612  -12.69413

