60
frame 1 | Written by MDAnalysis XYZWriter (release 2.4.3)
       H     9.60490    3.75108   10.34791
       O    10.31599    3.80512    9.69600
      H1    10.40288    2.88625    9.37112
       H     4.85751    6.51360   14.28983
       O     4.21563    5.81638   14.29838
      H1     4.77165    5.02392   14.19074
       H     5.65808   -1.59912   11.63800
       O     6.51092   -1.80441   11.26657
      H1     7.03180   -0.98863   11.46458
       H     9.44917    1.02479   13.09795
       O    10.31711    1.30711   13.41044
      H1    10.13136    2.24267   13.62998
       H     5.76190    6.82926    9.42578
       O     5.47173    7.68702    9.08327
      H1     5.11345    8.15929    9.83801
       H     5.07060    3.40273   11.16428
       O     5.60881    2.65642   11.39221
      H1     5.12563    2.18814   12.06861
       H     8.47469    0.06389    9.92891
       O     8.10336    0.79779    9.43950
      H1     7.13208    0.62885    9.48956
       H    11.56950    1.09552   12.29494
       O    12.24529    1.17524   11.61828
      H1    12.86810    0.46859   11.87362
       H     3.61904    4.51859    9.23029
       O     4.00643    5.10469    9.90619
      H1     4.95600    5.00430    9.76322
       H     7.34685    2.96230   11.41662
       O     8.31615    3.01241   11.37529
      H1     8.53498    2.29809   10.75675
       H     4.50654    0.11534   13.31649
       O     5.39678    0.45056   13.37319
      H1     5.55043    0.50884   14.31664
       H    11.03833    5.81119   11.82924
       O    11.56509    6.53817   11.51197
      H1    11.37685    6.62121   10.57988
       H     4.01821    3.14612   14.27057
       O     3.24124    2.81865   13.79452
      H1     2.73931    3.64417   13.73463
       H     6.54803    3.57495   13.87235
       O     5.93440    3.56040   14.62596
      H1     6.42018    4.13874   15.21355
       H     5.47642    1.46410   10.12146
       O     5.29558    0.73284    9.49835
      H1     4.64129    0.16823   10.00061
       H     6.92479    8.15064   12.15081
       O     7.43370    7.72642   11.48430
      H1     7.69204    8.47204   10.90624
       H     8.40419   -1.22439   12.77547
       O     8.24909   -0.31559   12.50261
      H1     7.48216   -0.12423   13.01334
       H     7.05948    5.58359   10.81637
       O     6.63331    5.12922   10.06280
      H1     7.36157    5.09048    9.41506
       H     9.40306    4.46372   14.90823
       O     8.73709    3.86812   15.29097
      H1     8.79836    4.01594   16.23356
       H     8.57849    6.48657    8.47071
       O     8.48151    5.62925    8.03867
      H1     9.18505    5.15634    8.44573

