60
frame 1 | Written by MDAnalysis XYZWriter (release 2.4.3)
       H    -4.85996  -12.62036  -10.61885
       O    -5.43295  -11.84471  -10.42642
      H1    -5.09999  -11.54881   -9.60755
       H    -5.60540  -10.07721   -4.29909
       O    -6.16366   -9.27890   -4.37664
      H1    -6.01278   -9.02475   -5.31235
       H    -3.96383  -15.24313   -9.31208
       O    -4.13176  -16.00436   -9.87391
      H1    -3.24902  -16.24720  -10.12678
       H    -4.29972  -12.59719   -3.63446
       O    -5.03550  -12.29748   -4.18648
      H1    -5.19633  -13.05698   -4.76110
       H    -3.14857   -6.89067   -6.27520
       O    -2.35176   -6.78571   -5.73666
      H1    -2.40704   -7.45616   -5.02377
       H    -6.55042   -7.62698  -10.66584
       O    -6.68430   -7.67617   -9.69149
      H1    -7.48554   -8.22099   -9.61273
       H    -7.13522  -12.88956   -9.48105
       O    -7.70979  -13.58855   -9.10360
      H1    -8.59096  -13.46466   -9.45304
       H    -4.10304   -6.16264   -8.14897
       O    -4.41548   -6.21058   -7.24498
      H1    -4.69110   -5.30385   -7.04980
       H    -9.42265   -8.40262  -10.43610
       O    -9.05706   -8.84346   -9.66436
      H1    -9.59735   -8.51162   -8.93285
       H    -2.54425  -11.04735   -7.37979
       O    -1.59487  -11.10418   -7.43260
      H1    -1.27189  -11.45807   -6.60010
       H    -7.68190  -10.82764   -7.70107
       O    -7.07743  -10.71364   -8.42746
      H1    -7.68315  -10.48702   -9.14619
       H    -8.01184  -15.85849   -6.95591
       O    -8.04670  -14.98343   -6.58245
      H1    -8.19229  -14.43553   -7.34146
       H    -5.95962   -7.06919   -6.93161
       O    -6.66179   -7.70568   -6.69856
      H1    -6.63720   -8.29753   -7.44827
       H    -5.31894  -15.28389   -5.60303
       O    -5.45161  -14.38438   -5.92928
      H1    -6.28680  -14.40319   -6.40143
       H    -4.17594  -10.21498   -8.49127
       O    -4.36058  -11.03774   -8.00837
      H1    -5.23114  -10.85110   -7.71083
       H    -3.73403  -14.50495  -11.20142
       O    -3.55413  -13.56440  -11.21738
      H1    -3.81483  -13.38013  -12.13041
       H    -3.99470  -13.95791   -7.16644
       O    -3.54935  -13.90161   -8.02481
      H1    -3.49998  -12.93767   -8.21958
       H    -4.50794  -10.86730  -11.40822
       O    -4.34938  -10.15789  -12.08203
      H1    -4.14306   -9.42636  -11.45143
       H    -4.75430   -8.57426   -9.84178
       O    -3.89563   -8.94167   -9.62058
      H1    -3.36113   -8.23899   -9.28630
       H    -7.46956  -10.45086   -5.21085
       O    -8.22151  -10.49830   -5.82177
      H1    -8.66151  -11.27348   -5.42388

