60
frame 1 | Written by MDAnalysis XYZWriter (release 2.4.3)
       H    -1.17102    0.63974    9.32875
       O    -1.27377    1.22151    8.53348
      H1    -2.14282    1.62765    8.66261
       H    -0.76840   -4.57502    6.63792
       O    -0.78093   -5.04000    7.45819
      H1     0.11947   -5.34847    7.60340
       H     0.56604   -2.43003    7.84027
       O    -0.37874   -2.35633    8.04149
      H1    -0.62680   -3.27208    8.09883
       H     3.59003   -2.01541   11.17612
       O     3.84103   -1.09226   11.25227
      H1     3.06181   -0.67819   11.64561
       H     2.41299   -4.67157    8.75399
       O     3.07574   -4.02416    8.97207
      H1     3.92270   -4.47506    8.73577
       H     1.80000   -6.72080    8.91928
       O     1.50081   -6.25758    8.14022
      H1     1.49106   -6.96850    7.48851
       H     2.64454   -1.10721    7.62903
       O     2.73370   -1.96605    7.18063
      H1     2.61899   -2.63526    7.87507
       H    -2.83736   -2.36162    9.94672
       O    -2.15880   -3.05439    9.88447
      H1    -1.39438   -2.58095    9.47697
       H     2.22793    0.73440    9.83218
       O     1.89492    0.05101    9.25020
      H1     0.97788   -0.08366    9.53104
       H    -0.12786   -0.97313   11.44862
       O    -0.45902   -0.84804   10.54883
      H1    -1.41768   -0.76426   10.61857
       H    -3.42531   -5.09884    6.83028
       O    -3.79821   -4.23038    7.02742
      H1    -4.34576   -4.43183    7.80208
       H    -0.01317   -0.65995    4.12145
       O     0.21956   -1.42835    3.54524
      H1     1.06068   -1.75270    3.87947
       H     2.98675   -1.59925    5.49661
       O     3.15415   -1.35113    4.60211
      H1     3.88689   -0.71250    4.65602
       H     2.41877   -3.82996   12.49770
       O     3.10819   -3.73476   11.79615
      H1     2.60590   -3.79768   10.96824
       H    -0.99224   -2.46821    4.50024
       O    -1.49428   -3.28757    4.40708
      H1    -1.03683   -3.84153    3.78161
       H     4.96160   -4.02909    5.24873
       O     4.03063   -4.18950    5.37027
      H1     3.83680   -3.59719    6.11507
       H    -0.86161    0.36366    6.74739
       O    -0.75186   -0.39505    6.12808
      H1    -0.74794   -1.14202    6.73799
       H     0.17712   -4.03467   10.81564
       O     0.68716   -3.46567   10.25206
      H1     0.41577   -2.58595   10.51708
       H    -3.41108   -2.46767    6.53101
       O    -3.35745   -1.51247    6.36423
      H1    -2.43138   -1.40466    6.30641
       H     1.97651    0.90591    7.75310
       O     1.93897    1.38504    6.90345
      H1     1.13923    1.04436    6.52116

