60
frame 1 | Written by MDAnalysis XYZWriter (release 2.4.3)
       H     3.76217    3.22104  -18.81387
       O     3.12317    3.87884  -18.53407
      H1     3.38035    4.05506  -17.64299
       H     7.48263    7.96967  -14.49491
       O     7.87717    7.51531  -15.25864
      H1     8.71046    7.13811  -14.90601
       H     3.95865    2.79830  -13.78272
       O     3.08685    3.06416  -14.01356
      H1     2.97255    3.74941  -13.37903
       H     2.77685    8.11207  -15.46576
       O     3.53085    7.78056  -14.95451
      H1     3.51776    6.83784  -15.12232
       H     5.17932    3.55901   -9.95850
       O     4.87691    2.60742   -9.76233
      H1     5.26080    2.40538   -8.92069
       H     6.52008    2.22448  -10.61834
       O     7.44944    2.27576  -10.39488
      H1     7.63900    1.40311  -10.03816
       H     5.15502    4.87593  -10.95273
       O     5.72549    5.14548  -10.22799
      H1     6.62891    5.04124  -10.53301
       H     9.26937    5.62276  -11.72045
       O     9.24700    5.95777  -12.63694
      H1     8.71176    5.32335  -13.13570
       H     6.65021    3.99494  -13.41343
       O     6.20606    4.67335  -13.92641
      H1     5.92649    4.15303  -14.68995
       H     9.00092    7.82128  -10.36892
       O     8.23747    7.83270  -10.94000
      H1     8.53206    7.20400  -11.60899
       H     3.33728    1.64506  -10.80217
       O     2.91747    0.79609  -10.59509
      H1     2.11285    0.82906  -11.15156
       H     7.82542    2.48646  -13.28224
       O     8.12023    3.27771  -12.79493
      H1     8.09925    2.96029  -11.85720
       H     5.01218    8.09153  -16.75722
       O     5.76971    7.73993  -17.22861
      H1     6.39164    7.62416  -16.51956
       H     6.29642    3.29775  -16.91404
       O     5.72649    3.00337  -16.17468
      H1     6.21256    2.35650  -15.64434
       H     1.49654    5.53446  -10.48214
       O     1.73681    6.41933  -10.20858
      H1     1.35406    7.01305  -10.85391
       H     4.03016    7.94531  -13.24533
       O     4.04102    8.06387  -12.28117
      H1     4.87450    8.52070  -12.16801
       H     3.95479    6.06290  -12.43169
       O     3.99749    5.07975  -12.55783
      H1     4.67247    5.05750  -13.22939
       H     3.55063    8.15894   -9.85917
       O     3.76067    8.78700   -9.16120
      H1     2.89218    8.85152   -8.74807
       H     3.17906    4.16523  -15.35464
       O     3.23005    5.04957  -15.77409
      H1     2.32408    5.25123  -16.02666
       H     5.05244    1.02509  -13.83990
       O     5.73749    1.58645  -13.47264
      H1     6.01684    1.05612  -12.69413

