60
frame 2 | Written by MDAnalysis XYZWriter (release 2.4.3)
       H    14.58552   -4.34523    2.52822
       O    13.91508   -4.85186    2.95754
      H1    14.51689   -5.56916    3.38169
       H    12.88129   -4.35633    7.40976
       O    13.60452   -3.94125    7.99494
      H1    14.00102   -3.26063    7.38396
       H    18.77791   -4.24836    7.57279
       O    18.57723   -3.40201    8.07755
      H1    18.09722   -3.61822    8.93517
       H    16.69053    1.42061    2.51317
       O    17.54436    1.71402    2.32149
      H1    18.00844    1.42253    3.19400
       H    18.24878   -5.44312   -0.10766
       O    17.45296   -5.11198   -0.47767
      H1    17.43396   -4.13246   -0.27110
       H    16.55590   -6.56657    4.33288
       O    15.65767   -6.94975    4.60607
      H1    15.82967   -7.36779    5.45439
       H    14.24171   -3.53452    5.40425
       O    14.70540   -2.72825    5.70664
      H1    15.67629   -2.85715    5.60898
       H    16.57594    0.32980    5.08124
       O    16.93237   -0.35756    4.44781
      H1    16.36395   -0.34430    3.71065
       H    17.59087   -1.85953    5.20872
       O    17.63573   -2.77083    5.53222
      H1    17.91090   -2.75730    6.42924
       H    18.24801   -0.62042    7.92270
       O    17.75746    0.11603    8.23961
      H1    16.91957    0.14412    7.79601
       H    16.04090   -2.85077    0.99649
       O    15.10772   -3.15620    1.06108
      H1    15.08020   -3.77330    0.26245
       H    19.86094    1.26672    6.64234
       O    19.67425    2.18138    6.38560
      H1    18.71570    2.28063    6.59844
       H    20.02409   -3.08378    3.57804
       O    19.11339   -3.46310    3.41922
      H1    18.56220   -3.11381    4.11591
       H    13.56844   -1.76501    4.10369
       O    13.43152   -0.90365    3.66417
      H1    12.56416   -0.57794    3.90209
       H    17.87853    0.60406    0.61103
       O    18.00410    0.80286   -0.33489
      H1    18.81689    1.35503   -0.39114
       H    18.23650   -8.61828    1.87999
       O    18.90472   -8.48157    2.53169
      H1    19.55111   -7.95201    2.02538
       H    15.05345   -0.78270    0.47552
       O    15.08015   -0.35882    1.37062
      H1    14.38907   -0.85891    1.82847
       H    18.44814   -6.88823    3.69812
       O    18.20231   -6.15135    4.29648
      H1    18.47612   -5.32743    3.84029
       H    18.28232   -2.10689    0.36149
       O    17.81064   -2.74025    0.92886
      H1    18.42325   -3.02287    1.66414
       H    18.84570   -8.39405    6.66039
       O    18.67435   -7.82454    7.39830
      H1    18.90775   -6.97246    7.11275

