60
frame 1 | Written by MDAnalysis XYZWriter (release 2.4.3)
       H     2.55154  -13.82314  -15.65533
       O     2.11341  -14.58001  -16.07728
      H1     2.04694  -14.37490  -17.02099
       H    -1.31009  -14.68786  -16.83995
       O    -1.46309  -15.61366  -17.10207
      H1    -0.86568  -15.73968  -17.85057
       H     1.27245  -15.77005  -15.07293
       O     0.96345  -16.33254  -14.33975
      H1     0.21819  -16.83681  -14.73275
       H     1.41625  -14.90435  -18.79091
       O     1.85588  -14.06441  -18.61291
      H1     1.24536  -13.36903  -18.91244
       H     1.75013  -18.55420  -15.98958
       O     1.53699  -18.50327  -16.94526
      H1     0.56912  -18.65714  -16.99074
       H    -0.43803  -18.15691  -18.90695
       O    -1.04538  -18.57935  -18.28953
      H1    -0.80427  -19.49929  -18.32938
       H    -3.93811  -17.41599  -17.25071
       O    -3.76893  -18.28112  -17.65542
      H1    -2.93710  -18.21913  -18.13659
       H    -0.37331  -14.92676  -13.94786
       O    -1.03049  -14.25454  -13.66815
      H1    -0.80890  -14.07076  -12.73110
       H    -1.05803  -16.63703   -9.82926
       O    -1.60932  -16.58472  -10.60847
      H1    -1.73724  -17.50645  -10.86066
       H     1.85297  -18.00504  -14.25330
       O     2.36995  -18.79317  -14.51409
      H1     3.23381  -18.62363  -14.12279
       H     5.55262  -14.85886  -14.36561
       O     4.79314  -15.19189  -13.85240
      H1     4.89807  -16.14350  -13.77986
       H    -2.51316  -15.52160  -13.46770
       O    -3.46724  -15.62308  -13.66501
      H1    -3.64824  -16.51343  -13.47423
       H    -0.12264  -12.79950  -16.35806
       O    -0.99929  -13.03746  -16.05381
      H1    -0.86671  -13.38471  -15.19664
       H     1.88523  -15.63793  -12.71558
       O     2.17735  -15.15848  -11.93056
      H1     2.05720  -14.21106  -12.16550
       H    -0.49177  -14.27891  -10.45806
       O    -0.78101  -13.46216  -10.82317
      H1    -1.71127  -13.46586  -10.81139
       H    -3.88105  -14.76050  -19.31023
       O    -3.77645  -14.48221  -18.40109
      H1    -3.16088  -15.13332  -18.01211
       H     4.51334  -16.17609  -17.94559
       O     4.56464  -16.63443  -17.09539
      H1     3.76440  -16.34136  -16.63936
       H    -2.81215  -18.32879  -13.51101
       O    -3.76774  -18.46214  -13.34900
      H1    -4.10920  -18.81688  -14.18259
       H    -1.32654  -17.78704  -16.06072
       O    -0.96054  -18.09802  -15.24311
      H1    -0.91780  -19.04705  -15.37259
       H     3.70010  -18.33945  -11.93914
       O     3.89586  -17.63357  -12.56064
      H1     4.41532  -16.99587  -12.05492

