60
frame 0 | Written by MDAnalysis XYZWriter (release 2.4.3)
       H     5.38883    5.54738   17.74721
       O     5.33724    5.92747   16.84046
      H1     4.36939    5.92278   16.69652
       H     5.36205    6.19298   13.25225
       O     5.01608    6.43699   12.38136
      H1     5.05544    5.53245   11.92367
       H     4.85198   -0.42059   16.79205
       O     4.28607    0.30432   17.13923
      H1     3.91359   -0.04491   17.96698
       H     3.04943    6.85433   11.92477
       O     2.45339    6.56671   11.21268
      H1     2.30552    7.34451   10.69205
       H     5.15924    1.83507   17.77079
       O     5.71560    2.59932   17.84297
      H1     6.59595    2.20592   17.88173
       H     3.28249    5.10296   11.01668
       O     3.88370    4.36351   10.94125
      H1     3.69624    4.07213   10.03268
       H     3.18885    2.38661   11.26963
       O     3.00040    1.43893   11.19939
      H1     2.06198    1.47193   10.96394
       H     1.48059    7.77963   13.40190
       O     2.12925    7.97134   14.07378
      H1     2.57531    8.77857   13.74810
       H     1.28736    1.37199   18.06556
       O     0.74376    1.31698   17.26136
      H1     1.42422    1.34474   16.55815
       H     2.60040    6.79092   15.36499
       O     2.85546    6.07427   15.97395
      H1     2.83681    5.28047   15.43261
       H     6.01438    0.68447   13.33992
       O     5.73686    0.73588   14.25336
      H1     4.83678    1.04620   14.25638
       H     3.52006    4.23909   13.84842
       O     3.09594    3.64289   14.48865
      H1     2.16209    3.62492   14.17873
       H     0.15067    2.99008   13.07729
       O     0.58608    2.87014   13.93578
      H1     0.30384    3.69603   14.41111
       H     6.85035    4.62481   14.42196
       O     5.93000    4.93037   14.44743
      H1     5.75379    5.04092   15.39519
       H     0.74731    1.03141   12.89003
       O     0.15673    0.28837   12.69969
      H1     0.72282   -0.40319   12.28810
       H    -0.45026    6.18101   13.40963
       O    -0.13953    7.02033   13.04972
      H1    -0.97516    7.40305   12.65920
       H     3.40606    0.65825   15.79381
       O     2.88536    0.81591   14.99758
      H1     3.12094    1.71123   14.74224
       H    -0.58534    1.72209   15.15593
       O    -1.43810    1.42313   15.46871
      H1    -1.52506    1.92467   16.30429
       H    -1.46014    4.72961   15.73795
       O    -1.05314    5.23097   14.98053
      H1    -0.85396    6.09311   15.39348
       H     1.24296    5.62894   17.59133
       O     0.29824    5.56773   17.82675
      H1     0.25246    4.77648   18.41543

