60
frame 1 | Written by MDAnalysis XYZWriter (release 2.4.3)
       H    -9.77611   18.23145   18.24338
       O   -10.33965   18.97040   18.02178
      H1   -11.24147   18.64822   18.15739
       H   -11.20210   12.93300   13.82931
       O   -10.56735   13.63557   13.89452
      H1   -10.77678   14.11611   14.69692
       H   -14.52829   18.45146   13.17205
       O   -13.87577   17.76072   12.95339
      H1   -13.79097   17.18723   13.75149
       H   -10.21198    9.59566   17.47514
       O    -9.40829    9.86922   16.97066
      H1    -9.56990   10.82933   16.79977
       H   -12.85574   14.81817   18.47576
       O   -13.38467   14.34543   17.83623
      H1   -13.24796   14.88907   17.07801
       H    -8.85134   13.29209   17.50334
       O    -8.38069   13.61256   18.28648
      H1    -8.92762   13.28560   19.00240
       H    -7.10248   16.43952   17.96959
       O    -6.71149   16.34804   17.09526
      H1    -6.78386   17.24014   16.73877
       H   -11.79799   11.15957   14.35540
       O   -12.44152   11.85325   14.28169
      H1   -12.81479   11.91012   15.19642
       H    -7.46378   13.44577   13.73161
       O    -6.85212   12.77048   13.38652
      H1    -7.05311   12.65650   12.44201
       H   -12.13008   11.34669   17.55543
       O   -12.14048   11.91542   16.77581
      H1   -12.59757   12.72911   16.99792
       H   -13.68256   13.35106   13.51387
       O   -14.51255   13.63576   13.92758
      H1   -14.88170   14.28677   13.33448
       H    -9.18844   15.49625   18.71199
       O    -9.60148   16.25644   18.26637
      H1    -9.76388   15.98488   17.34031
       H   -14.17328   16.33665   15.84637
       O   -13.57987   15.82889   15.25671
      H1   -14.13177   15.10366   14.97374
       H   -11.52712   15.72531   11.67083
       O   -10.58753   15.52384   11.81781
      H1   -10.57669   14.70972   12.36608
       H    -9.74190   17.72705   14.40735
       O    -9.42120   16.90399   14.03891
      H1    -9.79295   16.91355   13.17000
       H   -13.70121   18.87752   19.03681
       O   -13.17882   18.22518   18.56496
      H1   -13.85397   17.64601   18.18668
       H    -9.46985   12.98753   15.35567
       O    -9.59113   12.48159   16.15875
      H1   -10.55879   12.40454   16.20682
       H   -11.85276   15.65816   15.68222
       O   -10.88580   15.56078   15.77757
      H1   -10.55169   16.22689   15.17873
       H   -15.79170   17.63971   16.55960
       O   -15.27889   16.97909   17.00537
      H1   -15.89726   16.36543   17.39312
       H    -7.53562   15.01713   15.62363
       O    -7.65997   14.91181   14.70045
      H1    -8.47140   15.38833   14.51700

