60
frame 0 | Written by MDAnalysis XYZWriter (release 2.4.3)
       H    17.95812  -13.57039    7.75370
       O    17.02763  -13.61472    7.47035
      H1    17.05637  -13.83844    6.53031
       H    18.03749  -14.24182   12.22954
       O    17.86156  -13.35582   11.84581
      H1    17.55347  -12.90965   12.62528
       H    14.30025  -13.62163   12.17549
       O    14.01327  -14.47067   11.75939
      H1    13.63563  -14.13888   10.94019
       H    12.89465  -10.83061   10.82658
       O    12.26272  -11.53168   10.91588
      H1    11.46912  -11.12430   10.47486
       H    13.71599  -12.01125   13.44281
       O    14.60044  -12.26877   13.16933
      H1    14.92462  -12.73835   13.89623
       H    11.09608  -15.96877   12.19383
       O    11.49617  -15.58449   12.93751
      H1    12.26603  -15.17691   12.52866
       H    12.93656  -12.69991    9.70009
       O    13.21299  -13.44334    9.14867
      H1    14.18782  -13.39463    9.36497
       H    17.72377  -10.68046    8.40934
       O    17.45683   -9.98085    7.76363
      H1    17.32908   -9.23892    8.43317
       H    18.83823  -12.49715   10.32038
       O    18.83883  -12.44345    9.32817
      H1    19.69851  -11.93641    9.20119
       H    18.21618  -16.94418    8.48326
       O    17.77765  -17.15941    9.33446
      H1    16.95559  -16.64502    9.25469
       H    12.75833  -15.72103    9.29269
       O    12.69491  -16.65433    9.08500
      H1    13.14254  -17.02452    9.91169
       H    15.16827  -15.36581   13.14917
       O    15.75085  -15.30828   13.91024
      H1    15.32109  -15.14178   14.75583
       H    15.92781  -15.22670    8.01028
       O    15.52059  -15.97075    8.51964
      H1    14.66925  -16.16583    8.13495
       H    12.35128  -16.28281    6.53069
       O    12.07900  -17.13433    6.09661
      H1    12.81449  -17.73178    6.25872
       H    16.01190  -11.52878   10.47499
       O    16.16831  -10.53818   10.43393
      H1    15.36479  -10.25132   10.91783
       H    12.66244  -14.12379    7.41189
       O    12.64800  -14.47906    6.50452
      H1    12.22581  -13.79915    5.96798
       H    13.75446   -9.19698    9.94498
       O    13.63236   -9.27550   10.89976
      H1    13.49600   -8.34076   11.22541
       H    16.31546  -13.29816    9.09209
       O    15.83287  -13.13028    9.94757
      H1    16.30559  -13.62803   10.61517
       H    14.18950  -10.83888    4.93122
       O    14.65183  -10.23368    5.50780
      H1    15.54337  -10.26523    5.15870
       H    14.16575   -9.44473    7.20056
       O    14.13777   -9.14310    8.08924
      H1    14.96919   -8.71980    8.20077

