60
frame 1 | Written by MDAnalysis XYZWriter (release 2.4.3)
       H     7.18694    8.46828    8.71248
       O     8.07369    8.84381    8.64907
      H1     8.23033    9.29935    9.47263
       H     4.85751    6.51360   14.28983
       O     4.21563    5.81638   14.29838
      H1     4.77165    5.02392   14.19074
       H     3.74564    8.61705   11.41851
       O     3.95955    9.32881   10.82988
      H1     3.13325    9.48401   10.36211
       H     5.76190    6.82926    9.42578
       O     5.47173    7.68702    9.08327
      H1     5.11345    8.15929    9.83801
       H     5.94311    8.13737    7.12907
       O     6.10479    8.26068    6.19412
      H1     6.68780    9.05628    6.15754
       H     3.55677    6.69591   12.74422
       O     3.19016    7.08933   11.95780
      H1     3.29322    6.39053   11.32057
       H    -0.45234    7.84752    8.11830
       O    -0.10466    7.52844    8.94937
      H1     0.72851    8.00064    9.05205
       H     2.81119    7.07723    7.90628
       O     2.88713    7.79475    8.52892
      H1     3.75681    7.61965    8.84895
       H     8.20735   11.42087    6.97989
       O     8.58090   10.56187    6.70925
      H1     8.30813    9.98924    7.42475
       H     3.61904    4.51859    9.23029
       O     4.00643    5.10469    9.90619
      H1     4.95600    5.00430    9.76322
       H     6.92479    8.15064   12.15081
       O     7.43370    7.72642   11.48430
      H1     7.69204    8.47204   10.90624
       H     2.02343   11.19456   11.46539
       O     2.18580   12.12927   11.63025
      H1     1.39991   12.59083   11.30572
       H     1.53202   10.31935    9.00414
       O     1.26947    9.95490    9.88977
      H1     0.40702   10.36719   10.08616
       H     7.05948    5.58359   10.81637
       O     6.63331    5.12922   10.06280
      H1     7.36157    5.09048    9.41506
       H     1.05664    6.04572    6.35792
       O     1.99847    6.15476    6.59534
      H1     2.25280    5.35830    7.00959
       H     4.66738   11.09824   10.80270
       O     4.83994   12.01842   11.07423
      H1     3.96321   12.29298   11.23966
       H     4.92222   12.53702    6.85937
       O     5.43878   11.81849    7.23560
      H1     5.88198   11.46634    6.44686
       H     2.87206    9.37072    7.49899
       O     2.88011   10.32766    7.52178
      H1     3.78080   10.55839    7.33210
       H     9.73583   10.36741   10.75921
       O     8.83089   10.14320   10.98267
      H1     8.36323   10.99209   10.87715
       H     8.57849    6.48657    8.47071
       O     8.48151    5.62925    8.03867
      H1     9.18505    5.15634    8.44573

