60
frame 1 | Written by MDAnalysis XYZWriter (release 2.4.3)
       H    10.38926   -3.86630  -11.09266
       O     9.97204   -2.99156  -10.92575
      H1    10.07245   -2.87518   -9.95045
       H     7.62262    2.33572   -4.48562
       O     7.15480    1.50527   -4.73282
      H1     6.68016    1.20469   -3.93793
       H     4.39149   -1.77467   -4.14149
       O     3.61754   -1.21465   -4.05236
      H1     3.22781   -1.12060   -4.91634
       H     4.26847   -0.19710   -9.56807
       O     4.55883   -0.95105   -9.06058
      H1     3.79972   -1.57021   -9.02825
       H     6.38624   -3.38209  -10.59304
       O     6.75147   -2.94596   -9.81723
      H1     5.99491   -2.90739   -9.24367
       H     6.63027   -2.60591   -4.66853
       O     6.03959   -2.51271   -3.90570
      H1     6.35137   -1.74652   -3.38217
       H     7.53730   -4.91051   -7.64860
       O     8.25262   -4.77503   -8.26759
      H1     7.81678   -4.20760   -8.91538
       H     7.88974   -1.80171   -6.55135
       O     7.54756   -2.64653   -6.25080
      H1     8.30475   -3.20849   -6.35696
       H     6.09965    1.25726   -6.28420
       O     5.49355    0.98526   -7.00942
      H1     5.45030    0.03273   -6.89769
       H     9.06183   -0.88567   -5.11387
       O     9.20220   -1.05811   -4.16149
      H1    10.12778   -1.38851   -4.13488
       H     7.18902   -5.04485   -4.64851
       O     6.60372   -5.76482   -4.75394
      H1     7.09079   -6.45277   -4.27202
       H    11.48809   -5.44139   -8.65536
       O    10.84957   -5.12382   -9.30405
      H1    10.20373   -4.66922   -8.77292
       H     8.08917    0.66621   -5.79552
       O     8.46219    0.00949   -6.40207
      H1     9.11094    0.54219   -6.87261
       H    12.13830   -1.58654   -8.01098
       O    13.02026   -1.37903   -7.66976
      H1    13.61052   -1.86228   -8.23515
       H     9.93197   -3.74426   -5.19737
       O    10.59598   -3.64710   -5.91711
      H1    10.92748   -4.54665   -6.12618
       H    10.14274   -1.31630   -8.21885
       O    10.39995   -2.24259   -8.30433
      H1    10.31755   -2.57687   -7.39571
       H     8.89506   -4.71647   -3.13617
       O     8.75515   -4.21221   -3.95898
      H1     8.63318   -3.31699   -3.63288
       H     6.95879   -2.83347   -2.44280
       O     7.40860   -2.99019   -1.60119
      H1     7.44655   -2.11624   -1.22715
       H     7.21014    0.03732   -8.41012
       O     7.37946   -0.34687   -9.26445
      H1     7.20659   -1.28092   -9.10170
       H    10.03617    0.83317   -9.43031
       O    10.27770    0.67519   -8.52349
      H1    10.85806    1.41428   -8.29309

