60
frame 0 | Written by MDAnalysis XYZWriter (release 2.4.3)
       H     4.68965    4.50012  -18.98935
       O     5.42904    5.06345  -18.63200
      H1     6.22155    4.52768  -18.68408
       H     3.16044    9.83766  -16.63495
       O     3.56594   10.69863  -16.49515
      H1     3.06046   11.32631  -17.03538
       H     0.43986   12.30859  -15.87641
       O     0.08672   12.71635  -16.69481
      H1    -0.60899   12.09417  -16.99906
       H     2.75529    3.36639  -18.73359
       O     2.71508    4.27618  -19.03765
      H1     2.50377    4.74769  -18.19811
       H     4.97355    8.91122  -14.72204
       O     5.46964    8.37127  -15.35977
      H1     4.87632    7.63008  -15.55281
       H    -0.90412    4.63006  -17.16649
       O    -0.79108    4.22496  -18.03464
      H1    -0.13931    3.52746  -17.86081
       H    -1.44494    4.96505  -15.14412
       O    -0.50647    4.96291  -15.41162
      H1    -0.22438    4.04500  -15.40177
       H     1.47660   12.61332  -17.96044
       O     2.06906   12.22172  -18.60667
      H1     2.92925   12.65189  -18.45833
       H     1.33503    8.41990  -18.81924
       O     2.15166    8.40484  -18.30541
      H1     2.83660    8.13860  -18.94783
       H     5.67051   11.48990  -16.26137
       O     6.51566   11.80814  -15.87018
      H1     7.15023   11.66872  -16.58125
       H     1.79113   12.51575  -14.26273
       O     1.10097   11.86494  -14.28482
      H1     0.40410   12.23084  -13.72524
       H     1.44854    7.94067  -14.34934
       O     2.04321    7.18851  -14.51289
      H1     1.69921    6.76340  -15.30947
       H     2.94239    6.13530  -16.94008
       O     2.00483    5.95867  -17.01530
      H1     1.70096    6.80225  -17.38549
       H     4.88209   11.50126  -18.62172
       O     4.96247   12.43037  -18.57700
      H1     5.89959   12.52417  -18.36285
       H     5.28342    9.52547  -17.29537
       O     5.80725    9.51469  -18.10925
      H1     6.62532    9.05234  -17.87886
       H     1.06739   10.19127  -13.43132
       O     1.30260    9.34850  -13.07316
      H1     0.48070    9.05220  -12.67698
       H    -2.18156    9.41411  -17.35394
       O    -2.45881    8.51302  -17.68084
      H1    -2.62183    7.98073  -16.86171
       H    -2.43084   11.77415  -16.19064
       O    -2.12637   10.85100  -16.06876
      H1    -2.17192   10.75010  -15.11104
       H     3.89134    5.21327  -15.87961
       O     4.46916    5.87872  -16.29639
      H1     4.80106    5.46068  -17.09589
       H     2.99488    9.72380  -13.74707
       O     3.87522   10.09822  -13.88764
      H1     3.78185   10.51292  -14.74914

