60
frame 1 | Written by MDAnalysis XYZWriter (release 2.4.3)
       H    -2.46889   -4.12451   11.53016
       O    -2.29794   -4.50972   12.40775
      H1    -3.02971   -4.16787   12.95037
       H    -0.76840   -4.57502    6.63792
       O    -0.78093   -5.04000    7.45819
      H1     0.11947   -5.34847    7.60340
       H    -0.79701   -6.39243    3.67599
       O    -1.51886   -6.87132    4.12781
      H1    -1.55372   -7.70017    3.64782
       H     0.56604   -2.43003    7.84027
       O    -0.37874   -2.35633    8.04149
      H1    -0.62680   -3.27208    8.09883
       H    -3.02184   -9.19186    6.74091
       O    -2.81968  -10.12273    6.55001
      H1    -3.36599  -10.60939    7.17791
       H     2.41299   -4.67157    8.75399
       O     3.07574   -4.02416    8.97207
      H1     3.92270   -4.47506    8.73577
       H    -1.56032   -6.70171    7.22548
       O    -2.14512   -7.37574    6.83081
      H1    -2.03029   -7.16285    5.91442
       H     1.80000   -6.72080    8.91928
       O     1.50081   -6.25758    8.14022
      H1     1.49106   -6.96850    7.48851
       H     2.64454   -1.10721    7.62903
       O     2.73370   -1.96605    7.18063
      H1     2.61899   -2.63526    7.87507
       H    -2.83736   -2.36162    9.94672
       O    -2.15880   -3.05439    9.88447
      H1    -1.39438   -2.58095    9.47697
       H    -3.36354   -6.75291    4.14014
       O    -4.32006   -6.78301    4.28677
      H1    -4.44353   -7.30256    5.10018
       H     1.05253   -9.02537    6.81868
       O     1.90631   -8.63182    6.59510
      H1     1.81988   -8.32812    5.66691
       H    -3.42531   -5.09884    6.83028
       O    -3.79821   -4.23038    7.02742
      H1    -4.34576   -4.43183    7.80208
       H    -0.99224   -2.46821    4.50024
       O    -1.49428   -3.28757    4.40708
      H1    -1.03683   -3.84153    3.78161
       H    -0.86161    0.36366    6.74739
       O    -0.75186   -0.39505    6.12808
      H1    -0.74794   -1.14202    6.73799
       H    -2.78744   -6.38144    9.29844
       O    -2.97502   -7.32432    9.42764
      H1    -2.72232   -7.75748    8.59700
       H     0.17712   -4.03467   10.81564
       O     0.68716   -3.46567   10.25206
      H1     0.41577   -2.58595   10.51708
       H    -0.31322   -9.63739    8.99985
       O    -0.16237   -9.27938    9.88139
      H1     0.66389   -8.78505    9.79099
       H    -4.72625   -3.86521    3.65579
       O    -4.04538   -3.48442    3.08126
      H1    -3.29546   -3.41243    3.71825
       H    -3.41108   -2.46767    6.53101
       O    -3.35745   -1.51247    6.36423
      H1    -2.43138   -1.40466    6.30641

