60
frame 1 | Written by MDAnalysis XYZWriter (release 2.4.3)
       H    16.31288    0.05055   -3.96781
       O    15.62604    0.70683   -4.11109
      H1    14.89894    0.37166   -3.51822
       H    14.73833   -3.64070   -2.97124
       O    15.17864   -3.17471   -2.24116
      H1    14.63872   -3.46545   -1.50191
       H    17.08972    1.70932   -5.16199
       O    17.97422    1.90779   -4.85728
      H1    18.11403    1.54062   -3.96850
       H    17.01551   -4.59381   -3.26591
       O    17.73486   -4.91259   -2.67326
      H1    18.51275   -4.85498   -3.25200
       H    14.73302   -0.07571   -1.57669
       O    15.63447    0.01781   -1.35834
      H1    15.63946    0.78533   -0.74659
       H    17.11093   -2.21268   -7.17907
       O    17.45957   -2.91753   -7.70949
      H1    18.36134   -2.61282   -7.74858
       H    17.16778    0.33182   -2.48639
       O    18.04008    0.71475   -2.51903
      H1    18.07634    1.15224   -1.65814
       H    12.80259   -0.42225   -2.82316
       O    13.14307    0.32573   -2.33664
      H1    12.58171    1.08472   -2.58656
       H    17.23748    1.00677   -6.76842
       O    16.36935    1.30926   -7.10047
      H1    16.41276    1.22382   -8.07419
       H    13.09930    1.48954   -5.83981
       O    12.42881    1.13688   -6.45262
      H1    12.76119    0.24422   -6.67814
       H    14.91341   -5.82600   -6.46215
       O    15.04474   -5.76685   -7.40505
      H1    15.12620   -4.81095   -7.53991
       H    15.80937   -0.31210   -6.24175
       O    15.68128   -1.25265   -6.34950
      H1    15.63293   -1.58689   -5.45969
       H    11.78917   -2.77477   -2.70725
       O    12.01635   -2.01365   -3.26039
      H1    12.46249   -2.42035   -4.01182
       H    12.13830   -1.58654   -8.01098
       O    13.02026   -1.37903   -7.66976
      H1    13.61052   -1.86228   -8.23515
       H    13.00272   -3.97785   -5.79437
       O    13.46270   -3.24459   -5.41480
      H1    13.57491   -2.64460   -6.14799
       H    14.55180   -3.41220   -9.32741
       O    14.87829   -3.28535   -8.42978
      H1    15.81422   -3.16028   -8.53888
       H    12.18258    1.08394   -9.44622
       O    12.93660    0.48489   -9.61899
      H1    13.06394    0.00741   -8.76162
       H    16.46297   -2.25351   -3.14545
       O    16.87865   -1.74929   -3.86226
      H1    17.81620   -1.76480   -3.58200
       H    17.55685   -4.40802   -6.84499
       O    17.94164   -5.21645   -6.54142
      H1    17.19490   -5.84605   -6.47474
       H    14.71368    3.57045   -4.88629
       O    14.24446    2.78072   -5.13164
      H1    14.78307    2.09251   -4.72152

