60
frame 1 | Written by MDAnalysis XYZWriter (release 2.4.3)
       H     4.05645    1.25122    4.46335
       O     4.74112    0.92775    5.06127
      H1     4.89267    1.66011    5.66857
       H     1.43676    1.28986    0.64124
       O     1.40886    2.19848    0.27601
      H1     0.75285    2.13717   -0.44821
       H    -0.40438    1.77424    3.67203
       O    -0.00107    1.95602    4.50978
      H1     0.84853    2.36886    4.23512
       H     2.45725    2.98143    7.45963
       O     2.48147    3.77662    8.02239
      H1     1.62071    3.83823    8.43922
       H     1.71773    5.11826    3.34304
       O     2.50305    5.41292    3.84461
      H1     2.19710    5.82655    4.65758
       H    -0.81433    4.72015    4.64526
       O    -0.34776    5.57702    4.75277
      H1    -0.84032    6.15966    4.17935
       H     4.16946    5.94912    1.55421
       O     4.40366    6.41942    2.34783
      H1     3.59284    6.32400    2.85580
       H     5.41248    4.23903    2.53566
       O     5.08109    3.42398    2.97601
      H1     4.32133    3.70939    3.49430
       H    -1.00718    2.91009    5.73100
       O    -1.63574    3.55295    6.01151
      H1    -2.24925    2.97251    6.47464
       H    -0.01317   -0.65995    4.12145
       O     0.21956   -1.42835    3.54524
      H1     1.06068   -1.75270    3.87947
       H     2.98675   -1.59925    5.49661
       O     3.15415   -1.35113    4.60211
      H1     3.88689   -0.71250    4.65602
       H     2.52827    3.74322    4.40760
       O     2.57934    2.75962    4.36937
      H1     2.86070    2.50560    5.25228
       H     2.53721   -0.16718    2.59712
       O     1.84486    0.05177    1.96138
      H1     1.10243   -0.37850    2.35724
       H    -0.39141    3.99212    1.89100
       O     0.54851    4.26910    1.93128
      H1     1.00770    3.50091    1.54231
       H     4.20373    2.65944    1.39487
       O     4.12541    2.74171    0.43722
      H1     3.17953    2.62781    0.34270
       H     1.05664    6.04572    6.35792
       O     1.99847    6.15476    6.59534
      H1     2.25280    5.35830    7.00959
       H     0.68087    7.37608    0.92346
       O     1.06067    7.56667    1.81287
      H1     1.00389    6.71795    2.31576
       H     8.44430    2.08213    3.70066
       O     7.93087    1.94895    2.89101
      H1     7.01182    2.23752    3.09678
       H     1.97651    0.90591    7.75310
       O     1.93897    1.38504    6.90345
      H1     1.13923    1.04436    6.52116
       H     6.50246    3.72972    5.37957
       O     5.79538    3.42520    5.98212
      H1     6.24300    2.88558    6.65179

