60
frame 2 | Written by MDAnalysis XYZWriter (release 2.4.3)
       H    -9.18145  -18.76832    1.63291
       O    -9.32141  -19.47644    0.89946
      H1   -10.14207  -19.90867    1.15107
       H    -5.98260  -16.45297    6.39877
       O    -5.64440  -16.07157    5.55673
      H1    -6.44325  -15.61953    5.21503
       H    -9.02315  -16.36757    8.32588
       O    -9.40950  -16.84327    7.53575
      H1    -9.26402  -17.81502    7.59489
       H    -9.66821  -17.24130    2.86580
       O    -8.73076  -17.56838    2.93114
      H1    -8.54925  -18.05714    3.78325
       H    -7.01959  -12.09379    5.61271
       O    -7.00234  -11.62028    4.77111
      H1    -7.70588  -11.95202    4.19870
       H    -9.26858  -13.14843    2.87750
       O    -8.89091  -12.26813    2.94895
      H1    -8.37857  -12.30561    2.11539
       H    -3.99227  -16.47100    5.55986
       O    -3.02950  -16.31861    5.51847
      H1    -2.64255  -17.14798    5.09542
       H   -11.95149  -16.58395    2.90274
       O   -11.32072  -16.38832    2.15670
      H1   -11.44822  -15.42496    2.00830
       H   -11.37010  -13.01847    6.69122
       O   -10.96564  -13.09623    5.75549
      H1   -10.23436  -13.70984    5.83664
       H    -7.34659  -16.33861    2.64700
       O    -6.50547  -15.88866    2.39106
      H1    -6.52975  -15.87753    1.45018
       H   -10.81018  -11.53011    6.04402
       O   -10.75824  -10.53579    6.12407
      H1    -9.84068  -10.37789    6.08616
       H    -6.73510  -18.48674    7.49707
       O    -6.07869  -17.91934    7.87641
      H1    -5.24344  -18.50819    7.81404
       H    -5.83631  -12.43146    3.89360
       O    -5.18923  -13.06785    3.42642
      H1    -5.63489  -13.92135    3.25098
       H    -9.02191  -16.10072    5.85746
       O    -8.69809  -15.47953    5.18933
      H1    -8.23279  -14.78885    5.75586
       H    -3.50567  -16.69089    2.26783
       O    -4.16968  -17.34313    2.57174
      H1    -5.05128  -16.87074    2.48039
       H    -9.23420  -14.91080    9.86566
       O    -8.33728  -15.19170    9.55608
      H1    -7.75705  -15.08581   10.27791
       H   -12.76571  -12.92912    8.83127
       O   -12.06361  -13.41168    8.40254
      H1   -12.53876  -13.98266    7.78413
       H   -13.99928  -13.83688    5.57445
       O   -13.65604  -14.65481    5.94810
      H1   -14.36980  -15.28567    6.18850
       H    -7.97131  -14.01321    8.08554
       O    -7.46056  -13.77588    7.27310
      H1    -6.55636  -13.79873    7.53326
       H   -13.95395  -16.52560    3.71118
       O   -13.17643  -16.64568    4.26324
      H1   -13.29576  -15.85502    4.90002

