60
frame 1 | Written by MDAnalysis XYZWriter (release 2.4.3)
       H    17.72048  -12.09129  -10.30655
       O    18.04852  -11.28268   -9.84592
      H1    17.47795  -11.17628   -9.06648
       H    14.79819   -2.90258  -14.93062
       O    15.52131   -3.16703  -14.33645
      H1    15.41717   -4.14037  -14.30329
       H    15.38443  -10.24382   -7.53827
       O    16.19821  -10.10969   -8.02102
      H1    16.84936   -9.79844   -7.36158
       H    18.37110   -7.63243  -12.36668
       O    17.69315   -7.19908  -12.86997
      H1    17.70135   -6.31990  -12.46421
       H    17.11093   -2.21268   -7.17907
       O    17.45957   -2.91753   -7.70949
      H1    18.36134   -2.61282   -7.74858
       H    14.40351   -6.57267  -13.13441
       O    14.49340   -5.62146  -13.39053
      H1    14.71829   -5.16760  -12.57397
       H    13.73238   -2.79203  -11.36872
       O    14.57644   -3.20664  -11.24549
      H1    15.16102   -2.44794  -11.16484
       H    19.00551   -8.88876   -7.05986
       O    18.38242   -9.49783   -6.67551
      H1    17.95854   -8.94612   -6.02668
       H    18.58385   -6.15954  -15.75802
       O    17.69944   -6.47151  -15.59863
      H1    17.68090   -6.54502  -14.63596
       H    14.91341   -5.82600   -6.46215
       O    15.04474   -5.76685   -7.40505
      H1    15.12620   -4.81095   -7.53991
       H    17.49213   -4.80190  -10.81391
       O    17.24496   -4.55219  -11.73157
      H1    16.65990   -3.75972  -11.62132
       H    17.00488   -1.19485  -12.23186
       O    16.97028   -1.48792  -11.29562
      H1    17.77065   -2.02261  -11.18198
       H    17.22668   -6.55010   -9.62123
       O    17.86181   -5.88348   -9.38282
      H1    17.87680   -5.90170   -8.41934
       H    16.93088   -7.34068   -4.36043
       O    16.59994   -7.64191   -5.23148
      H1    15.77611   -8.06388   -5.05862
       H    14.91038   -7.91792  -11.35177
       O    15.09611   -8.02149  -12.29560
      H1    16.02473   -7.75798  -12.39453
       H    14.55180   -3.41220   -9.32741
       O    14.87829   -3.28535   -8.42978
      H1    15.81422   -3.16028   -8.53888
       H    15.61810   -7.03741   -8.95523
       O    15.69698   -7.74301   -9.62744
      H1    15.97323   -8.57566   -9.16342
       H    13.41583   -5.83803   -7.33549
       O    12.48532   -5.60807   -7.04817
      H1    12.06790   -6.47072   -6.80308
       H    18.83148  -10.65325  -12.68403
       O    18.35577   -9.90807  -12.30913
      H1    18.33719  -10.03159  -11.35993
       H    17.55685   -4.40802   -6.84499
       O    17.94164   -5.21645   -6.54142
      H1    17.19490   -5.84605   -6.47474

