60
frame 1 | Written by MDAnalysis XYZWriter (release 2.4.3)
       H     7.18694    8.46828    8.71248
       O     8.07369    8.84381    8.64907
      H1     8.23033    9.29935    9.47263
       H     9.02234    9.33590    3.19091
       O     8.76539   10.09337    3.72333
      H1     9.29469    9.98981    4.51906
       H     6.36196    7.32139    4.86027
       O     6.63161    6.91994    4.00626
      H1     5.78169    6.60623    3.68507
       H     8.10997    6.59877    5.05916
       O     9.03119    6.42710    5.35357
      H1     8.95993    6.28228    6.29053
       H     1.71773    5.11826    3.34304
       O     2.50305    5.41292    3.84461
      H1     2.19710    5.82655    4.65758
       H     5.76190    6.82926    9.42578
       O     5.47173    7.68702    9.08327
      H1     5.11345    8.15929    9.83801
       H     7.08390   10.62359    4.42214
       O     6.27757   11.07908    4.70463
      H1     5.58589   10.67985    4.15482
       H     5.94311    8.13737    7.12907
       O     6.10479    8.26068    6.19412
      H1     6.68780    9.05628    6.15754
       H     2.81119    7.07723    7.90628
       O     2.88713    7.79475    8.52892
      H1     3.75681    7.61965    8.84895
       H     8.20735   11.42087    6.97989
       O     8.58090   10.56187    6.70925
      H1     8.30813    9.98924    7.42475
       H     4.16946    5.94912    1.55421
       O     4.40366    6.41942    2.34783
      H1     3.59284    6.32400    2.85580
       H     6.62478    8.26166    2.69526
       O     6.45949    8.89835    1.99243
      H1     5.57022    9.24402    2.17637
       H     7.05948    5.58359   10.81637
       O     6.63331    5.12922   10.06280
      H1     7.36157    5.09048    9.41506
       H     1.05664    6.04572    6.35792
       O     1.99847    6.15476    6.59534
      H1     2.25280    5.35830    7.00959
       H     8.63447    5.42702    3.44082
       O     8.83577    5.45324    2.49911
      H1     9.64738    4.92981    2.39523
       H     4.92222   12.53702    6.85937
       O     5.43878   11.81849    7.23560
      H1     5.88198   11.46634    6.44686
       H     2.87206    9.37072    7.49899
       O     2.88011   10.32766    7.52178
      H1     3.78080   10.55839    7.33210
       H     6.50246    3.72972    5.37957
       O     5.79538    3.42520    5.98212
      H1     6.24300    2.88558    6.65179
       H     8.57849    6.48657    8.47071
       O     8.48151    5.62925    8.03867
      H1     9.18505    5.15634    8.44573
       H     3.39580    9.89489    1.84266
       O     4.14185   10.24603    2.33367
      H1     4.49814   10.92679    1.77973

