60
frame 1 | Written by MDAnalysis XYZWriter (release 2.4.3)
       H    -3.99896   17.89849  -12.63040
       O    -3.84154   17.12686  -12.05806
      H1    -4.41776   17.29751  -11.30455
       H    -7.96558   16.83368  -15.00659
       O    -7.72225   17.09151  -14.14421
      H1    -8.39434   17.76263  -13.90983
       H    -0.58055   18.47578  -10.17271
       O    -0.99269   18.55562  -11.04105
      H1    -1.62375   17.83772  -11.14638
       H    -6.90126   14.02781  -13.32046
       O    -7.82358   14.26265  -13.39828
      H1    -7.79643   15.23465  -13.46438
       H   -11.44063   15.82020  -15.13403
       O   -10.94946   14.99781  -15.07502
      H1   -10.08008   15.17018  -15.47372
       H    -5.16139   14.98913  -12.71689
       O    -5.22849   14.20086  -13.24117
      H1    -5.41164   14.48707  -14.16174
       H    -6.15833   17.63938  -16.68430
       O    -6.78146   16.97342  -17.02206
      H1    -6.31078   16.14079  -17.03584
       H    -6.25130   19.15697   -9.29772
       O    -6.36858   18.40277   -9.87654
      H1    -6.12611   17.64976   -9.32606
       H    -3.49395   14.23026  -14.98133
       O    -2.74891   14.03632  -15.56844
      H1    -2.02861   13.83241  -14.95457
       H    -0.96641   16.94099  -15.02475
       O    -1.45079   17.09595  -15.85170
      H1    -0.84621   16.71631  -16.50481
       H     0.36757   17.88050  -12.57536
       O     0.58672   17.43493  -13.39007
      H1     1.32746   17.91081  -13.70239
       H    -8.85940   13.80412  -16.46461
       O    -8.49002   14.67109  -16.25975
      H1    -7.88191   14.49314  -15.51882
       H    -9.89504   18.77121  -12.78742
       O   -10.05316   18.78518  -13.71965
      H1   -10.40384   17.94365  -13.91444
       H    -6.14172   13.56293  -16.28051
       O    -5.68896   14.38985  -16.08006
      H1    -4.82924   14.25440  -16.47578
       H    -4.17531   18.49483  -16.32030
       O    -4.58867   18.05498  -15.54295
      H1    -4.08198   17.24869  -15.47463
       H    -2.47078   15.82957  -11.84223
       O    -1.55756   15.49730  -11.84781
      H1    -1.58165   14.62196  -11.43364
       H    -0.55872   15.22208  -13.45248
       O    -0.19120   14.64843  -14.12845
      H1     0.38863   15.20677  -14.65826
       H     1.56586   14.56429  -17.05064
       O     1.29944   15.39907  -16.65686
      H1     2.11687   15.81917  -16.37434
       H   -10.48370   17.08422  -16.77682
       O    -9.68322   17.30064  -16.33006
      H1    -9.02555   16.70389  -16.76211
       H    -1.95725   14.87686  -17.10537
       O    -1.40644   14.88085  -17.93185
      H1    -0.83985   14.11686  -17.73817

