60
frame 1 | Written by MDAnalysis XYZWriter (release 2.4.3)
       H     3.11810   -6.72831   12.48765
       O     3.73845   -6.41840   11.78107
      H1     3.56539   -5.48980   11.78664
       H    -2.46889   -4.12451   11.53016
       O    -2.29794   -4.50972   12.40775
      H1    -3.02971   -4.16787   12.95037
       H    -3.38917   -1.02142   11.69911
       O    -3.21132   -0.55759   10.87416
      H1    -3.87434    0.13588   10.76837
       H     3.59003   -2.01541   11.17612
       O     3.84103   -1.09226   11.25227
      H1     3.06181   -0.67819   11.64561
       H    -2.83736   -2.36162    9.94672
       O    -2.15880   -3.05439    9.88447
      H1    -1.39438   -2.58095    9.47697
       H     1.50182   -5.10477   14.07991
       O     1.44307   -4.12649   14.17000
      H1     1.94401   -3.89422   14.97709
       H     2.22793    0.73440    9.83218
       O     1.89492    0.05101    9.25020
      H1     0.97788   -0.08366    9.53104
       H    -0.12786   -0.97313   11.44862
       O    -0.45902   -0.84804   10.54883
      H1    -1.41768   -0.76426   10.61857
       H     5.12583   -4.96964   14.44951
       O     4.58244   -4.16683   14.46888
      H1     4.36448   -4.01394   13.55048
       H     0.42749    1.28919   15.90131
       O     1.16774    0.84046   16.22034
      H1     1.73269    1.48598   16.66483
       H    -0.00993   -4.91763   16.68900
       O    -0.03107   -3.97601   16.46535
      H1     0.13636   -3.99810   15.50656
       H    -2.84650    0.53530   14.38079
       O    -2.95893    1.30518   13.83825
      H1    -2.11989    1.78017   13.93238
       H     2.41877   -3.82996   12.49770
       O     3.10819   -3.73476   11.79615
      H1     2.60590   -3.79768   10.96824
       H     1.14055   -1.24399   13.11483
       O     0.25232   -1.58593   13.08206
      H1     0.35127   -2.49109   13.36253
       H    -0.48447   -0.04562   15.54410
       O    -1.27896   -0.57860   15.46518
      H1    -1.14444   -1.08103   14.62753
       H    -2.60171   -1.73721   16.87709
       O    -2.33559   -2.59705   17.21671
      H1    -1.43145   -2.67316   16.90657
       H     1.54772   -2.36322   16.80531
       O     2.34795   -2.45988   16.30384
      H1     2.73042   -1.56983   16.24259
       H     2.61290    0.09907   14.59777
       O     2.43868    0.00433   13.63704
      H1     2.04120    0.86151   13.41641
       H    -4.22277   -4.64100   14.88743
       O    -3.86741   -3.79767   14.59294
      H1    -3.18736   -3.57545   15.23906
       H     0.17712   -4.03467   10.81564
       O     0.68716   -3.46567   10.25206
      H1     0.41577   -2.58595   10.51708

