60
frame 1 | Written by MDAnalysis XYZWriter (release 2.4.3)
       H     3.93098  -14.28771   13.28635
       O     3.69485  -13.35795   13.31260
      H1     3.54830  -13.18207   14.24230
       H     5.37170  -10.37110    7.87000
       O     6.12440  -10.91702    8.15278
      H1     6.32572  -11.52572    7.42010
       H     3.56874  -11.14091   12.37971
       O     3.59100  -10.17596   12.43582
      H1     3.69816   -9.89127   11.51889
       H     9.19620  -14.13255   12.05209
       O     9.85603  -14.78148   11.80918
      H1     9.35258  -15.59444   11.65278
       H     7.71823   -9.71219    7.97326
       O     8.58485   -9.37155    7.67093
      H1     8.77698   -8.74430    8.39070
       H     3.48984  -11.17881    9.38632
       O     2.63898  -11.03426    8.94868
      H1     2.09310  -11.77203    9.27846
       H     5.25015   -6.79739   12.83849
       O     5.73055   -6.53268   13.63870
      H1     5.94013   -7.37948   14.03492
       H     7.41894  -14.80228   14.65540
       O     7.07282  -13.97301   14.90612
      H1     6.81149  -13.57354   14.04773
       H     5.25812   -8.15410    7.80516
       O     4.90977   -8.65157    8.52473
      H1     5.53409   -8.47800    9.22980
       H     9.43388   -9.57827   10.35671
       O    10.33049   -9.94622   10.50193
      H1    10.25227  -10.73836    9.96979
       H     5.95571  -10.79842   11.32377
       O     6.76070  -10.37184   11.67024
      H1     6.46847  -10.13651   12.52372
       H     3.11953   -8.09709    9.21372
       O     2.41616   -8.42405    9.79048
      H1     2.41355   -9.32690    9.50172
       H     5.96843   -5.81359    9.71925
       O     5.95614   -6.48517   10.39862
      H1     5.03038   -6.45690   10.67997
       H     5.20618  -15.42962   11.64591
       O     5.95855  -14.89047   11.38340
      H1     5.99761  -15.09173   10.45056
       H     7.99536   -7.38155    9.86452
       O     8.34928   -8.12450   10.36334
      H1     7.56545   -8.61035   10.55091
       H     5.29577  -12.01520    9.53997
       O     4.84140  -11.96686   10.37275
      H1     4.88679  -12.88085   10.65885
       H     4.65622   -9.88991   13.98274
       O     5.23341   -9.41490   14.57194
      H1     4.87288   -9.55326   15.45987
       H     7.52482  -12.02081   12.15590
       O     7.70896  -12.93646   12.40471
      H1     7.12953  -13.37985   11.79683
       H     8.59369  -12.65688   14.58632
       O     9.39752  -12.22045   14.85421
      H1     9.65928  -12.69803   15.67037
       H     1.94281   -9.70282   12.70505
       O     1.07516   -9.48487   13.08472
      H1     0.51670   -9.34424   12.33377

