60
frame 1 | Written by MDAnalysis XYZWriter (release 2.4.3)
       H   -10.92307   10.50888   -2.11745
       O   -11.57612   10.36012   -2.83337
      H1   -11.99996    9.54929   -2.55451
       H   -11.41345    7.26544   -4.86177
       O   -11.58493    6.53030   -4.28503
      H1   -12.20519    6.89378   -3.62863
       H    -8.87103   11.23255   -2.02233
       O    -9.41249   10.92280   -1.27531
      H1    -9.15871   11.48360   -0.51273
       H   -12.26179    6.19424   -1.13826
       O   -12.40165    5.31173   -0.78984
      H1   -11.60109    4.82747   -1.09831
       H   -16.04069   10.01569   -2.06573
       O   -15.57901   10.45455   -1.31857
      H1   -14.83356   10.87933   -1.77478
       H    -9.89353    4.30705   -2.47254
       O   -10.18041    3.88156   -1.62839
      H1    -9.68965    4.42855   -0.98058
       H   -15.04191    5.08290   -1.01148
       O   -15.04915    4.61318   -0.19552
      H1   -14.14597    4.71643    0.15557
       H    -7.92559    8.41883   -1.15903
       O    -7.14904    8.76629   -0.73424
      H1    -6.75963    8.01942   -0.23579
       H   -14.12382    4.88055   -3.67140
       O   -14.34487    4.75652   -4.63565
      H1   -13.47580    4.45855   -4.96635
       H   -12.74605   11.46496   -2.07603
       O   -13.49247   12.00605   -1.78521
      H1   -13.06338   12.57452   -1.16412
       H   -10.31071    5.51023   -4.07848
       O    -9.65521    4.83938   -4.22187
      H1    -8.97806    5.29260   -4.72042
       H    -8.86110   10.04464    1.40194
       O    -9.25381    9.20069    1.61101
      H1    -9.88184    8.99388    0.90967
       H   -16.03591    6.79140   -2.55722
       O   -15.15309    6.43000   -2.42255
      H1   -14.76813    6.96591   -1.71761
       H   -14.80757    7.92277    0.56211
       O   -14.43777    8.18208   -0.33015
      H1   -14.92698    8.96850   -0.56884
       H   -10.33611    8.72281   -5.80204
       O   -10.80597    8.32830   -6.55294
      H1   -10.08895    7.96070   -7.07516
       H    -9.48057   10.61155   -5.43632
       O    -9.56114    9.87379   -4.80017
      H1   -10.19526   10.18783   -4.18063
       H   -12.64680    9.81526    0.10856
       O   -11.76950    9.47443    0.31774
      H1   -11.94534    9.32370    1.26725
       H   -12.26028    8.27337   -1.05982
       O   -12.04778    7.84949   -1.90858
      H1   -11.13525    8.04429   -2.12162
       H   -11.87957    3.94688    1.63238
       O   -11.76937    4.89340    1.68767
      H1   -12.10369    5.25185    0.88501
       H    -8.51972    6.83340   -2.50957
       O    -9.00311    7.65731   -2.68147
      H1    -8.84053    7.89266   -3.59432

