60
frame 1 | Written by MDAnalysis XYZWriter (release 2.4.3)
       H    13.07853  -17.84946   17.60269
       O    12.58432  -17.04709   17.78192
      H1    12.99663  -16.67853   18.59307
       H    14.34062  -15.74064   11.13681
       O    15.04976  -16.25293   10.69193
      H1    15.22207  -17.01532   11.28382
       H    17.17608  -13.52951   16.63223
       O    16.39317  -13.97321   16.34945
      H1    16.00361  -13.42363   15.67257
       H     9.19620  -14.13255   12.05209
       O     9.85603  -14.78148   11.80918
      H1     9.35258  -15.59444   11.65278
       H     9.67876  -17.91003   11.73171
       O     8.94176  -17.37792   11.37161
      H1     8.28836  -18.09082   11.28797
       H    15.86756  -19.27979   12.76963
       O    15.78764  -18.32522   12.54803
      H1    15.40473  -17.98196   13.36293
       H     8.26931  -16.44062   13.04326
       O     8.10715  -16.41350   13.99690
      H1     8.86914  -16.82979   14.38813
       H    13.66014  -17.66740   15.12988
       O    12.76044  -17.96007   15.09026
      H1    12.34090  -17.23956   14.57015
       H    15.57578  -16.06386   15.17438
       O    15.23944  -16.98016   15.25970
      H1    15.42657  -17.11180   16.20153
       H    13.96518  -13.91699   15.40113
       O    14.30701  -13.73028   14.51058
      H1    13.70248  -14.19431   13.90248
       H    16.14427  -14.90832   11.74081
       O    16.96673  -14.48319   11.95662
      H1    16.75368  -13.56534   12.13342
       H     9.82033  -17.44467   16.77451
       O    10.12280  -17.92416   15.97331
      H1    11.07817  -17.81492   15.94680
       H    10.94739  -14.54628   16.47697
       O    11.86471  -14.75937   16.23908
      H1    11.98215  -15.64986   16.66860
       H     8.98778  -14.45238   17.59169
       O     9.59177  -13.69708   17.65430
      H1    10.29971  -13.97164   18.23369
       H    15.56736  -16.44726   18.55009
       O    16.19034  -17.06591   18.11716
      H1    16.22661  -17.84042   18.69694
       H     8.59369  -12.65688   14.58632
       O     9.39752  -12.22045   14.85421
      H1     9.65928  -12.69803   15.67037
       H    10.67453  -15.62070   13.35886
       O    11.15836  -16.19420   13.96186
      H1    11.49529  -15.58506   14.64818
       H     8.65564  -16.66379   18.71653
       O     8.57125  -16.53061   17.76308
      H1     7.70989  -16.94716   17.56744
       H    13.29732  -11.98213   14.20953
       O    13.46427  -11.11679   13.80936
      H1    12.62698  -11.05669   13.33172
       H    12.83770  -15.59943   12.43300
       O    13.50602  -14.94208   12.27696
      H1    13.06738  -14.20825   11.79204

