60
frame 1 | Written by MDAnalysis XYZWriter (release 2.4.3)
       H    -5.25508   19.31789   -0.58847
       O    -5.23168   19.08792    0.37429
      H1    -4.52498   18.41232    0.49591
       H     2.63361   16.27041   -3.38078
       O     3.11235   16.02636   -2.55433
      H1     4.02427   15.83461   -2.80564
       H    -5.73354   15.45073   -1.21483
       O    -5.10202   16.14649   -1.46372
      H1    -5.22441   16.30392   -2.40131
       H    -2.42369   14.19436   -4.00733
       O    -3.16783   13.95034   -3.41284
      H1    -3.79952   13.49454   -3.97664
       H    -0.58055   18.47578  -10.17271
       O    -0.99269   18.55562  -11.04105
      H1    -1.62375   17.83772  -11.14638
       H     1.91640   18.17444   -7.81395
       O     2.85955   18.25434   -7.90735
      H1     3.11339   19.12868   -7.56950
       H    -0.36286   18.70063   -2.34360
       O    -0.57584   17.77062   -2.26082
      H1    -0.20352   17.58259   -1.37830
       H     0.30254   15.88238   -7.86486
       O     0.23103   16.52070   -7.13864
      H1    -0.50226   17.05166   -7.39896
       H    -3.69143   14.88248   -6.82231
       O    -4.58009   14.53683   -6.76348
      H1    -4.50470   13.83727   -6.11437
       H     0.43623   17.06002   -3.79377
       O     1.19610   17.06002   -4.38397
      H1     0.75226   17.02866   -5.23565
       H     3.63324   15.00929   -7.63834
       O     3.78842   15.80160   -7.08160
      H1     3.09616   16.40284   -7.37337
       H    -3.84060   18.34095   -3.04772
       O    -3.73906   18.99570   -2.35326
      H1    -3.44338   18.42895   -1.62568
       H     0.40307   14.84574   -3.47905
       O     1.06430   14.26758   -3.12580
      H1     1.72353   14.84449   -2.69597
       H    -4.39031   16.96751   -5.90326
       O    -4.30807   17.26218   -6.85411
      H1    -4.94097   16.70177   -7.35109
       H    -4.18332   15.95232   -3.68109
       O    -4.61249   16.69633   -4.13566
      H1    -5.42474   16.27499   -4.46361
       H    -2.73162   16.64168    0.05815
       O    -3.00765   17.57175   -0.09803
      H1    -2.22696   18.09623    0.10307
       H    -0.78546   14.60742   -5.78799
       O    -1.06729   14.89153   -4.90328
      H1    -1.19916   15.84016   -4.99716
       H     0.88438   16.77069    0.73401
       O     0.44081   16.46093   -0.04724
      H1     0.64885   15.51147   -0.14149
       H    -1.72005   17.85785   -3.85836
       O    -1.71906   17.98943   -4.83168
      H1    -1.65084   18.96877   -4.87293
       H    -3.08301   14.59862    0.51173
       O    -2.81072   14.74920   -0.41439
      H1    -3.58466   15.06565   -0.86016

