60
frame 1 | Written by MDAnalysis XYZWriter (release 2.4.3)
       H     0.27456    4.15296   -6.08963
       O    -0.30053    4.93769   -6.05163
      H1     0.25471    5.58353   -6.48980
       H    -2.01980    1.06926   -4.41560
       O    -1.75997    0.82372   -5.32714
      H1    -1.32810   -0.01755   -5.14949
       H     4.39149   -1.77467   -4.14149
       O     3.61754   -1.21465   -4.05236
      H1     3.22781   -1.12060   -4.91634
       H    -1.05506   -1.31607   -3.80875
       O    -0.92501   -1.64915   -4.72852
      H1    -0.00034   -1.38909   -4.98748
       H     4.42812    2.00382   -5.92532
       O     3.89354    2.58297   -5.38631
      H1     4.51626    3.27966   -5.18997
       H     2.42031    2.68336   -2.96958
       O     1.65951    3.17575   -3.34095
      H1     1.83494    3.23585   -4.29246
       H     2.55527    3.08140   -8.70638
       O     1.87852    2.37545   -8.63324
      H1     2.14045    1.72141   -9.28498
       H    -1.53512   -0.55162   -1.73763
       O    -0.79520   -0.32543   -2.30935
      H1    -0.05194   -0.69603   -1.80007
       H    -0.32039    1.78999   -5.83181
       O     0.58042    2.11812   -6.02857
      H1     0.59397    2.27156   -6.98031
       H     6.09965    1.25726   -6.28420
       O     5.49355    0.98526   -7.00942
      H1     5.45030    0.03273   -6.89769
       H     1.83884   -1.58746   -8.42115
       O     2.31109   -2.27300   -8.91406
      H1     1.93828   -2.17150   -9.81518
       H     0.98763   -0.40491   -6.59708
       O     1.38716   -0.49434   -5.70492
      H1     1.41499    0.45044   -5.39379
       H    -1.70853    1.55465   -9.87767
       O    -1.16795    1.76181   -9.08870
      H1    -0.53426    2.38800   -9.46225
       H    -2.85712   -0.30540   -6.71448
       O    -2.42697   -0.93023   -7.33942
      H1    -2.59591   -1.79669   -6.97643
       H     1.12383   -2.61753   -2.25098
       O     0.90571   -3.53944   -2.11681
      H1     1.04432   -3.61709   -1.18424
       H     1.48717   -3.47262   -5.63197
       O     1.90689   -4.32844   -5.59072
      H1     2.67561   -4.15439   -5.06916
       H     2.45674   -1.15688   -2.69677
       O     1.79205   -0.84845   -2.05084
      H1     2.21566   -0.96917   -1.19718
       H     0.05110    0.36202   -8.72529
       O     0.22806   -0.45596   -8.22965
      H1    -0.61319   -0.68094   -7.78903
       H    -0.53310    1.47518   -2.08201
       O    -0.50079    2.40189   -1.79541
      H1     0.06733    2.80321   -2.46495
       H     3.28338    0.65826   -2.44330
       O     3.61951    1.53972   -2.50662
      H1     4.31438    1.46654   -3.19811

