60
frame 1 | Written by MDAnalysis XYZWriter (release 2.4.3)
       H     2.51063   12.03687   13.49691
       O     2.65985   11.93535   14.44517
      H1     2.16199   12.70456   14.77173
       H     2.14727   15.70457   13.83898
       O     2.77543   15.37095   14.46570
      H1     2.15571   14.92049   15.07221
       H     2.33702   18.49447   15.35753
       O     3.18161   18.03210   15.12234
      H1     3.06618   17.13255   15.44364
       H     0.98593   17.20067   12.74178
       O     0.87247   16.28222   12.57604
      H1    -0.04095   16.07453   12.79133
       H    -1.81998    9.19483   14.87820
       O    -1.40255    8.35617   14.97539
      H1    -0.46778    8.55709   15.12333
       H     2.63535    7.84578   16.09781
       O     2.58536    6.90648   16.09101
      H1     3.07853    6.63347   15.30350
       H     3.46223   16.17099   18.14705
       O     3.75390   15.89172   17.28051
      H1     4.11650   15.02102   17.43582
       H     3.11602   15.44614   11.42792
       O     4.01974   15.69002   11.34145
      H1     4.45867   15.14977   12.02851
       H     1.38257   10.76061   15.32179
       O     0.88225   10.17747   15.91430
      H1     1.23070   10.42751   16.77028
       H     4.73588   11.68064   14.76908
       O     5.44803   12.28224   14.97589
      H1     6.20009   11.70698   14.87857
       H    -1.55059   12.96095   17.04611
       O    -1.23847   13.86247   16.86373
      H1    -1.10600   13.83824   15.90627
       H    -2.43618   14.94821   11.35047
       O    -1.77291   15.12663   12.04226
      H1    -1.68032   14.24205   12.41013
       H     6.15649   13.58927   16.07560
       O     6.48700   14.20880   16.75137
      H1     6.80037   14.94236   16.18268
       H     2.02343   11.19456   11.46539
       O     2.18580   12.12927   11.63025
      H1     1.39991   12.59083   11.30572
       H     5.59438   13.80897   14.06674
       O     5.43059   14.69488   13.68671
      H1     4.57279   14.89688   14.03202
       H    -2.22043   11.74460   13.93260
       O    -1.92051   12.57482   13.55939
      H1    -2.75575   13.08646   13.52991
       H     2.96583   11.72218   18.01891
       O     2.45990   10.88245   18.09355
      H1     3.01779   10.26924   17.62242
       H     2.22518   13.94559   17.10827
       O     1.62041   13.69637   16.35692
      H1     0.76989   13.82010   16.77136
       H     4.66738   11.09824   10.80270
       O     4.83994   12.01842   11.07423
      H1     3.96321   12.29298   11.23966
       H    -1.29116   11.13866   10.79825
       O    -0.98964   10.69851   11.61769
      H1    -1.41937   11.22446   12.26300

