60
frame 1 | Written by MDAnalysis XYZWriter (release 2.4.3)
       H   -11.20210   12.93300   13.82931
       O   -10.56735   13.63557   13.89452
      H1   -10.77678   14.11611   14.69692
       H   -14.52829   18.45146   13.17205
       O   -13.87577   17.76072   12.95339
      H1   -13.79097   17.18723   13.75149
       H   -12.85574   14.81817   18.47576
       O   -13.38467   14.34543   17.83623
      H1   -13.24796   14.88907   17.07801
       H   -18.38509   16.05274   17.56659
       O   -18.14288   16.83992   17.02793
      H1   -17.98907   16.45768   16.13775
       H   -15.14675   16.35757    7.85271
       O   -14.81616   16.00985    8.69533
      H1   -15.57989   15.58702    9.05781
       H   -15.66209   12.36935   13.59305
       O   -16.45941   11.94487   13.21939
      H1   -16.27013   10.98724   13.35777
       H   -19.17818   18.27371   12.51310
       O   -18.69037   18.36341   13.33698
      H1   -19.21873   18.98908   13.84869
       H   -16.56115   15.81487   13.20717
       O   -15.89142   15.61917   12.54622
      H1   -15.36018   16.43281   12.55602
       H   -13.68256   13.35106   13.51387
       O   -14.51255   13.63576   13.92758
      H1   -14.88170   14.28677   13.33448
       H   -13.29783   16.00135   10.46188
       O   -13.27227   15.33676   11.15369
      H1   -13.26186   14.51048   10.70189
       H   -14.17328   16.33665   15.84637
       O   -13.57987   15.82889   15.25671
      H1   -14.13177   15.10366   14.97374
       H   -12.72108   18.11990    8.09658
       O   -13.01952   18.72915    8.80645
      H1   -12.40780   18.49668    9.49067
       H   -18.62486   15.25355   14.47851
       O   -17.91026   15.94621   14.37908
      H1   -18.36410   16.69102   13.96715
       H   -11.52712   15.72531   11.67083
       O   -10.58753   15.52384   11.81781
      H1   -10.57669   14.70972   12.36608
       H   -16.77119   13.87139    9.77311
       O   -17.02459   14.74182   10.11933
      H1   -16.45916   14.95131   10.87013
       H    -9.74190   17.72705   14.40735
       O    -9.42120   16.90399   14.03891
      H1    -9.79295   16.91355   13.17000
       H   -13.70121   18.87752   19.03681
       O   -13.17882   18.22518   18.56496
      H1   -13.85397   17.64601   18.18668
       H   -17.25482   18.54945    9.91962
       O   -16.33252   18.37845   10.08964
      H1   -16.04651   17.66244    9.51926
       H   -11.85276   15.65816   15.68222
       O   -10.88580   15.56078   15.77757
      H1   -10.55169   16.22689   15.17873
       H   -15.79170   17.63971   16.55960
       O   -15.27889   16.97909   17.00537
      H1   -15.89726   16.36543   17.39312

