60
frame 1 | Written by MDAnalysis XYZWriter (release 2.4.3)
       H     4.09133   16.86276  -17.82773
       O     3.26622   17.01453  -18.26375
      H1     3.47076   17.82605  -18.75320
       H     8.85698   14.45086  -16.18405
       O     9.73660   14.74498  -15.93545
      H1     9.57372   15.40217  -15.24761
       H     6.05239   18.49886  -10.44575
       O     6.22562   17.56062  -10.44313
      H1     6.74711   17.43686  -11.25994
       H     3.19565   15.34853  -12.01134
       O     3.71207   15.10456  -12.76959
      H1     4.54790   14.79956  -12.40574
       H    11.62327   17.03534  -16.10631
       O    11.82376   16.58111  -16.92848
      H1    11.21640   15.84573  -16.91351
       H     7.00765   13.46232  -17.52937
       O     7.73166   13.08319  -17.03017
      H1     8.20068   12.63979  -17.74428
       H    12.55814   17.41079  -18.41124
       O    12.99795   18.10681  -18.90548
      H1    12.78819   18.92806  -18.45223
       H     2.32758   13.29516  -18.21797
       O     3.02243   13.49366  -18.83813
      H1     3.77421   13.68487  -18.26019
       H     6.68179   18.67536  -19.30511
       O     6.83030   18.88558  -18.38414
      H1     7.79340   18.86863  -18.29567
       H    13.17249   15.90193  -16.07172
       O    13.78712   15.64361  -15.37136
      H1    14.56240   15.43674  -15.82277
       H     8.62079   15.27806  -11.84328
       O     8.74118   16.26183  -11.79012
      H1     9.26803   16.38859  -11.02356
       H     0.36757   17.88050  -12.57536
       O     0.58672   17.43493  -13.39007
      H1     1.32746   17.91081  -13.70239
       H    12.71117   18.90815  -14.07493
       O    11.77332   18.99625  -13.87486
      H1    11.53486   18.06384  -13.81258
       H     6.32704   17.43163  -17.46162
       O     6.00139   16.59923  -17.16752
      H1     6.65196   16.33864  -16.48634
       H    11.01862   15.62492  -13.72606
       O    10.67115   16.49448  -13.80068
      H1    10.10047   16.60781  -13.01623
       H     5.88735   13.19176  -14.67929
       O     6.11084   13.89190  -14.05178
      H1     6.27759   13.44851  -13.25147
       H     7.25401   17.11380  -14.20658
       O     7.68726   16.38493  -14.68699
      H1     7.43612   15.61746  -14.14388
       H     1.56586   14.56429  -17.05064
       O     1.29944   15.39907  -16.65686
      H1     2.11687   15.81917  -16.37434
       H     6.00150   14.17600  -19.44856
       O     5.81527   14.10618  -18.50537
      H1     5.92783   15.03002  -18.20160
       H     4.38549   16.63870  -15.63265
       O     3.76640   15.90990  -15.64029
      H1     3.66013   15.68310  -14.68497

