60
frame 1 | Written by MDAnalysis XYZWriter (release 2.4.3)
       H    12.89310    3.59234   -6.04233
       O    12.17900    4.09316   -6.41903
      H1    11.58735    4.28602   -5.64017
       H     7.62262    2.33572   -4.48562
       O     7.15480    1.50527   -4.73282
      H1     6.68016    1.20469   -3.93793
       H     8.36863    2.15762    0.78661
       O     9.03181    2.28122    0.12606
      H1     9.83237    1.93522    0.52211
       H     9.87618    2.48172   -4.71033
       O     9.95002    2.55932   -5.65669
      H1    10.78986    2.16602   -5.86010
       H     5.88701   -0.15117   -1.75978
       O     6.35006   -0.28429   -2.56857
      H1     7.23128   -0.22448   -2.30259
       H     8.36276    2.68864   -2.96627
       O     7.96986    3.43230   -3.42232
      H1     7.15247    3.59341   -2.94293
       H    12.80259   -0.42225   -2.82316
       O    13.14307    0.32573   -2.33664
      H1    12.58171    1.08472   -2.58656
       H    13.13066    3.64072   -2.61538
       O    12.44766    3.00835   -2.46988
      H1    11.70115    3.43524   -2.86482
       H    10.27520    5.73012   -3.48271
       O    10.97130    5.06594   -3.56544
      H1    11.70286    5.41866   -3.02095
       H    13.09930    1.48954   -5.83981
       O    12.42881    1.13688   -6.45262
      H1    12.76119    0.24422   -6.67814
       H     9.06183   -0.88567   -5.11387
       O     9.20220   -1.05811   -4.16149
      H1    10.12778   -1.38851   -4.13488
       H     8.08917    0.66621   -5.79552
       O     8.46219    0.00949   -6.40207
      H1     9.11094    0.54219   -6.87261
       H    11.78917   -2.77477   -2.70725
       O    12.01635   -2.01365   -3.26039
      H1    12.46249   -2.42035   -4.01182
       H     9.71988   -0.84315   -1.00773
       O     8.86762   -0.45982   -1.16085
      H1     8.82127    0.35463   -0.62594
       H     8.95766    4.74638   -0.65692
       O     9.79620    5.10502   -1.00841
      H1     9.74913    4.84501   -1.93791
       H    12.84406    3.33003   -0.58373
       O    13.25943    3.16215    0.24759
      H1    12.85137    3.78037    0.86230
       H    11.57546    1.37177    2.31884
       O    11.57124    1.49654    1.36119
      H1    12.28652    2.10383    1.22078
       H     7.60493    4.02651   -5.08213
       O     7.84342    4.16471   -6.03369
      H1     8.76283    3.80867   -6.08869
       H    10.01540    1.65887   -1.98814
       O     9.83326    1.47586   -2.91589
      H1     9.64526    0.53108   -2.90579
       H    11.53391    0.02086    0.33288
       O    11.53124   -0.86690   -0.07187
      H1    12.11196   -0.80606   -0.85579

