60
frame 1 | Written by MDAnalysis XYZWriter (release 2.4.3)
       H   -18.11001   -3.46399  -10.67878
       O   -18.70222   -2.88617  -10.16926
      H1   -18.30968   -2.01294  -10.25381
       H   -16.48779   -5.09627  -12.81845
       O   -15.95965   -5.27078  -13.61118
      H1   -16.68689   -5.42160  -14.22399
       H   -13.63007    1.71227  -17.17681
       O   -14.40668    2.17072  -17.56706
      H1   -14.79554    1.46887  -18.12544
       H   -17.99850   -5.10706  -16.42692
       O   -17.51935   -5.82580  -15.99194
      H1   -17.57757   -6.54046  -16.63260
       H   -14.74795    1.97897  -11.03179
       O   -15.51047    2.53277  -10.81202
      H1   -16.21225    2.13859  -11.32556
       H   -16.43216    1.95920  -13.44393
       O   -17.08360    1.42287  -12.99247
      H1   -16.71335    0.54406  -13.27715
       H   -15.26711    2.53092  -15.71765
       O   -14.97267    2.54085  -14.76424
      H1   -15.12216    3.45269  -14.49322
       H   -10.52533   -0.67255  -15.09824
       O   -11.05432   -0.79277  -15.90161
      H1   -11.68130   -0.06339  -15.89243
       H   -12.04661   -3.44941  -15.27174
       O   -12.30628   -3.14370  -16.13693
      H1   -11.86206   -2.27547  -16.18826
       H   -19.36329   -4.15155  -13.17231
       O   -18.43740   -3.79544  -13.24360
      H1   -18.37065   -3.44855  -14.15049
       H   -12.02025   -2.17588  -12.21642
       O   -12.88528   -1.74366  -12.32382
      H1   -13.28835   -2.12880  -13.11294
       H   -13.08689    0.49668  -12.72244
       O   -13.68540    1.00921  -12.15019
      H1   -13.98612    1.65360  -12.79529
       H   -14.84782   -3.75258  -13.86945
       O   -14.36760   -2.95274  -14.09845
      H1   -14.00491   -3.14821  -14.97836
       H   -14.76674    4.86677  -17.23407
       O   -15.71545    4.95165  -17.11637
      H1   -15.98266    4.09228  -17.48914
       H   -17.77508   -0.55199  -17.02232
       O   -17.87123   -0.98518  -16.13859
      H1   -17.44903   -0.33223  -15.57470
       H   -15.70890   -1.62860  -10.29419
       O   -16.51695   -1.32331  -10.64092
      H1   -16.46003   -1.66595  -11.55559
       H   -13.47336    1.70296  -15.07779
       O   -12.59670    1.35635  -15.25030
      H1   -11.98612    2.03407  -14.93514
       H   -16.12765    5.03091  -15.42225
       O   -16.44578    4.79433  -14.54070
      H1   -16.38044    5.57626  -14.00909
       H   -17.41926    2.44667  -18.05827
       O   -17.27194    2.26148  -17.10746
      H1   -18.07258    2.52979  -16.67355
       H   -16.02437   -2.01954  -13.94047
       O   -16.68996   -1.52800  -13.43237
      H1   -17.36153   -2.22258  -13.22833

