60
frame 1 | Written by MDAnalysis XYZWriter (release 2.4.3)
       H    13.56759   12.37903   -8.39887
       O    13.08619   11.81531   -8.98612
      H1    13.33526   10.92483   -8.71870
       H     6.78541   16.82484   -8.87469
       O     7.50667   16.80651   -8.20344
      H1     6.99979   16.82287   -7.36827
       H    11.27779   16.08949  -10.44658
       O    10.84155   16.97516  -10.33046
      H1    10.28126   16.80957   -9.58143
       H    11.85632   14.35789   -5.97412
       O    12.08446   15.00873   -6.68163
      H1    11.44757   14.81508   -7.41957
       H    10.41844   10.70346   -8.42096
       O    10.55439   10.04875   -7.71576
      H1     9.72547   10.08653   -7.23321
       H    10.29814   16.75330   -3.60389
       O    10.22862   16.76694   -2.65188
      H1    11.10832   16.45723   -2.35968
       H    13.16384   13.11348   -4.44237
       O    12.40377   13.55540   -4.05386
      H1    12.83571   14.35319   -3.74635
       H    10.74519   13.26670   -8.78452
       O    10.28706   13.91703   -8.25842
      H1     9.42229   13.98026   -8.72262
       H    15.04084   13.82944   -7.21573
       O    14.23287   13.98903   -7.73185
      H1    13.63691   14.36788   -7.07390
       H    10.47442   11.17173  -10.43716
       O     9.85443   11.77270   -9.93274
      H1     9.11435   11.17179   -9.79701
       H    11.63652   11.25612   -7.00693
       O    12.11178   11.77285   -6.34007
      H1    13.01825   11.88652   -6.70638
       H     8.62079   15.27806  -11.84328
       O     8.74118   16.26183  -11.79012
      H1     9.26803   16.38859  -11.02356
       H    14.73201   15.94703   -4.13500
       O    13.84263   15.93364   -3.77042
      H1    13.41424   16.79255   -3.95088
       H     7.46573   14.99129   -8.45514
       O     7.38670   14.03621   -8.70882
      H1     6.81333   14.03157   -9.49889
       H    10.81000   16.35694   -5.72508
       O     9.94146   16.81401   -5.63235
      H1     9.38602   16.08286   -5.32026
       H     8.17605   19.39295   -5.38448
       O     8.91807   19.12501   -4.85614
      H1     9.32608   18.43362   -5.39828
       H    12.86063   13.81085  -10.69565
       O    12.08942   14.35909  -10.87870
      H1    11.69485   13.94539  -11.63114
       H    10.74402   12.76566   -5.44811
       O     9.86939   13.05555   -5.75235
      H1    10.01155   13.36331   -6.64440
       H    13.08481   18.72023   -9.26437
       O    13.07300   18.44932  -10.20465
      H1    12.28021   17.89853  -10.22203
       H     8.00471   14.84038   -3.83329
       O     8.22718   14.89972   -4.76198
      H1     8.78121   14.11933   -4.93462

