60
frame 1 | Written by MDAnalysis XYZWriter (release 2.4.3)
       H     2.06965  -11.45950   -7.91402
       O     2.22929  -10.62928   -7.42064
      H1     2.95964  -10.80623   -6.81203
       H     8.13793  -12.53212   -7.70620
       O     8.12616  -11.58962   -7.43705
      H1     9.02586  -11.28933   -7.55865
       H     3.56035  -10.72362   -9.32654
       O     3.11635  -11.31259   -9.96781
      H1     3.29771  -12.16095   -9.58587
       H     7.39724  -15.07013   -8.13939
       O     6.81674  -15.51612   -7.49735
      H1     7.45419  -15.92841   -6.86409
       H     4.32988  -14.45129   -4.04435
       O     3.68382  -15.16054   -3.92327
      H1     3.36087  -15.04700   -3.01841
       H     3.66507   -7.80406   -5.98719
       O     4.52398   -8.16395   -5.82675
      H1     4.73125   -7.98510   -4.91000
       H     7.23101  -12.00872   -1.81021
       O     6.53827  -11.40195   -2.08413
      H1     5.75446  -11.95045   -2.13276
       H     7.87149  -13.99428   -9.93645
       O     8.40257  -13.81802   -9.13271
      H1     9.35802  -13.82753   -9.43661
       H     3.46099   -9.49752   -8.10116
       O     4.17430   -9.30400   -8.74824
      H1     3.79668   -8.86459   -9.52495
       H     2.50561  -12.39778   -4.07933
       O     1.56199  -12.55372   -3.96012
      H1     1.55116  -13.48876   -4.07878
       H     6.19502   -9.52629   -8.01385
       O     6.61136   -9.17429   -7.24277
      H1     5.91001   -8.67256   -6.79756
       H     4.14728  -12.39706   -1.07355
       O     4.11195  -12.54195   -2.03297
      H1     3.80085  -11.73522   -2.44112
       H     7.84298  -11.38474  -10.24956
       O     7.84571  -10.46147   -9.96948
      H1     7.85844  -10.55680   -9.01580
       H     3.82961   -9.12586   -2.54065
       O     3.29449   -9.90432   -2.83631
      H1     2.43431   -9.52885   -3.08238
       H     4.94513  -13.31761   -8.21587
       O     4.84337  -13.58751   -9.16647
      H1     4.16697  -14.26010   -9.13678
       H     6.60935  -10.34623   -3.99033
       O     6.49214   -9.40820   -4.28854
      H1     6.77757   -9.44645   -5.19365
       H     8.47735  -14.44022   -2.94520
       O     8.21382  -14.45096   -3.84749
      H1     8.39755  -15.36707   -4.12792
       H     8.43162  -12.79780   -4.48914
       O     8.55168  -11.83194   -4.61207
      H1     8.61486  -11.62607   -5.52632
       H     5.70940  -11.73366   -6.00973
       O     4.91261  -11.17826   -6.05716
      H1     5.17739  -10.28581   -5.76453
       H     6.45219  -14.32559   -5.83982
       O     5.93800  -13.74833   -5.24571
      H1     6.50284  -13.67473   -4.48716

