60
frame 1 | Written by MDAnalysis XYZWriter (release 2.4.3)
       H   -13.10760   13.03538   -4.48663
       O   -13.95220   12.64421   -4.29323
      H1   -13.96493   12.52284   -3.32328
       H   -18.58561    8.37827   -0.06745
       O   -18.38308    8.43595   -1.00380
      H1   -19.08553    9.01791   -1.34690
       H   -18.86805    7.02111   -4.15302
       O   -18.24978    7.52124   -4.67108
      H1   -18.80940    8.12115   -5.17457
       H   -18.03905   11.94370   -4.65015
       O   -18.52437   11.91951   -3.81469
      H1   -19.10741   12.71739   -3.87029
       H   -16.54064   15.22841   -7.41001
       O   -16.71970   15.02020   -8.33832
      H1   -15.98791   14.44436   -8.52208
       H   -14.63587   11.14588   -5.00149
       O   -15.11979   10.44332   -5.45646
      H1   -15.89191   10.86840   -5.87084
       H   -16.04069   10.01569   -2.06573
       O   -15.57901   10.45455   -1.31857
      H1   -14.83356   10.87933   -1.77478
       H   -15.68287    6.55969   -5.77521
       O   -16.36374    6.40835   -6.43519
      H1   -17.09572    6.72135   -5.91759
       H   -16.64742   13.07437   -5.71718
       O   -17.13061   12.35669   -6.14882
      H1   -17.34157   12.61717   -7.05095
       H   -12.74605   11.46496   -2.07603
       O   -13.49247   12.00605   -1.78521
      H1   -13.06338   12.57452   -1.16412
       H   -17.11691    8.51881   -4.07300
       O   -16.59469    9.25527   -3.70165
      H1   -16.00928    9.50695   -4.40583
       H   -15.74928   14.94147   -5.31435
       O   -15.12650   15.24221   -5.99215
      H1   -14.51383   14.50923   -6.08562
       H   -15.58965   14.04428   -1.96021
       O   -15.49366   14.97144   -2.24178
      H1   -16.14907   15.44410   -1.71586
       H   -14.80757    7.92277    0.56211
       O   -14.43777    8.18208   -0.33015
      H1   -14.92698    8.96850   -0.56884
       H   -17.30178   12.71297   -2.62005
       O   -16.86861   12.79366   -1.77556
      H1   -16.49346   11.92618   -1.67629
       H   -16.61461    8.13670   -7.30833
       O   -17.24119    8.84742   -7.52821
      H1   -17.59682    8.52877   -8.35687
       H   -17.54913   15.70816   -4.46712
       O   -17.31725   14.83729   -4.16997
      H1   -16.60019   14.95676   -3.50737
       H   -17.36412   11.55815   -9.88520
       O   -17.48674   11.57472   -8.94243
      H1   -17.31730   10.67444   -8.68750
       H   -18.31971   16.57800   -1.60912
       O   -17.37892   16.69011   -1.49474
      H1   -17.26838   16.76602   -0.54665
       H   -17.14548   10.33455    1.24753
       O   -16.18131   10.17764    1.35952
      H1   -15.78616   10.48309    0.51918

