60
frame 0 | Written by MDAnalysis XYZWriter (release 2.4.3)
       H     4.35777   -7.84933   13.27427
       O     4.84494   -8.51051   12.74264
      H1     5.72175   -8.14598   12.69796
       H    -0.88114   -4.34018   10.53802
       O    -0.17554   -4.19551   11.19336
      H1    -0.68145   -4.21926   11.99665
       H     2.47010   -8.30418   13.63955
       O     2.54900   -7.36300   13.87511
      H1     2.21497   -7.32458   14.79185
       H    -0.49556   -5.61112    7.14281
       O    -0.38931   -5.42809    8.08877
      H1     0.22146   -6.11958    8.34572
       H     1.38716  -12.77488   12.76510
       O     0.47673  -13.02047   12.85537
      H1     0.15385  -12.20040   13.25846
       H     3.23292  -10.18631   13.06162
       O     2.29060  -10.06349   12.93628
      H1     2.04810  -10.45168   12.09029
       H     3.26488  -11.23689   10.36359
       O     2.37373  -10.92459   10.27279
      H1     1.86957  -11.73344   10.10955
       H    -0.92969   -8.41157    8.52555
       O    -1.09435   -9.36287    8.63496
      H1    -0.66890   -9.58791    9.43342
       H     2.98478   -7.43458   10.94194
       O     3.38797   -7.47785   10.07226
      H1     2.63625   -7.65044    9.47779
       H     1.63557   -8.53313    7.81592
       O     1.37321   -7.62185    8.02238
      H1     1.71885   -7.09116    7.30247
       H     4.47957   -8.63785    8.80108
       O     5.12878   -9.36200    8.61904
      H1     4.93671   -9.62763    7.71188
       H     0.57965   -5.86628   11.59956
       O     1.08752   -6.67951   11.56330
      H1     1.49151   -6.75220   12.42986
       H    -1.46569   -5.16290   13.83006
       O    -1.39578   -4.29048   13.45446
      H1    -0.56623   -3.94772   13.77951
       H    -3.70475  -12.37356    9.50881
       O    -3.44360  -11.44534    9.48878
      H1    -2.55139  -11.50949    9.13446
       H    -3.13991   -9.71199   12.82614
       O    -2.52976   -8.98629   12.71458
      H1    -2.73590   -8.60038   11.88287
       H    -3.10583   -7.21165    9.72118
       O    -3.39774   -7.68299   10.48320
      H1    -3.97573   -8.33602   10.06575
       H     0.41929  -10.04994    7.87340
       O     1.40797  -10.21676    7.76824
      H1     1.67354  -10.41180    8.68801
       H    -0.85006   -9.42273   11.73808
       O    -0.05211   -9.60578   11.19418
      H1     0.40892   -8.72711   11.17461
       H    -2.93856   -7.56013   13.83325
       O    -2.95808   -6.74504   14.31233
      H1    -2.70824   -6.97314   15.25101
       H     0.81141  -10.14487   13.89813
       O    -0.01532  -10.56417   14.20031
      H1    -0.68540  -10.01660   13.79586

