60
frame 1 | Written by MDAnalysis XYZWriter (release 2.4.3)
       H   -11.29017  -13.47252   -6.48255
       O   -11.53067  -12.57828   -6.25693
      H1   -12.46466  -12.67778   -6.05063
       H   -16.29499  -13.81710   -5.11394
       O   -16.32553  -12.83899   -5.03659
      H1   -17.17734  -12.60228   -5.42811
       H   -12.47730  -10.78471   -3.64803
       O   -11.71917  -11.36143   -3.76300
      H1   -11.81739  -11.64476   -4.69280
       H   -18.66856  -12.54399   -6.75780
       O   -18.68748  -12.03569   -5.94324
      H1   -18.64830  -11.12819   -6.25297
       H   -18.35981  -12.59430   -9.30844
       O   -18.01291  -12.92917   -8.46066
      H1   -17.47304  -13.70424   -8.71177
       H   -13.77449  -12.14633   -3.13938
       O   -13.99758  -12.87770   -3.74816
      H1   -14.51886  -12.46307   -4.42780
       H   -14.00752  -10.52144   -6.68394
       O   -13.73603  -10.28419   -5.78515
      H1   -14.56564  -10.01091   -5.35407
       H   -17.01361  -10.19148   -2.73366
       O   -17.06940   -9.23814   -2.76436
      H1   -16.86664   -9.05472   -3.66597
       H   -16.63990  -10.08286   -8.43142
       O   -16.63953  -10.57587   -7.60155
      H1   -17.18596  -11.38729   -7.77689
       H   -17.47972  -16.80042   -7.02448
       O   -18.15457  -16.93894   -7.72352
      H1   -18.22015  -17.89515   -7.71331
       H   -15.15027  -11.15748   -8.20986
       O   -14.24443  -11.20499   -8.52379
      H1   -14.19946  -10.63175   -9.29459
       H   -16.97053  -12.45615   -3.26251
       O   -17.01543  -12.04327   -2.40442
      H1   -17.87897  -12.28988   -2.10309
       H   -14.45083  -16.08520   -7.59430
       O   -14.43421  -15.80702   -6.65158
      H1   -15.21899  -15.26232   -6.56865
       H   -16.19131  -16.73541   -2.91354
       O   -15.49760  -16.13140   -3.29159
      H1   -15.54120  -15.37322   -2.68488
       H   -13.13868  -14.47957   -4.04235
       O   -12.80223  -15.20634   -4.57299
      H1   -13.56000  -15.59033   -5.01548
       H   -15.76455  -11.36790   -0.85341
       O   -15.36625  -11.51937    0.01909
      H1   -14.42320  -11.42552   -0.13555
       H   -16.59255  -15.80017   -4.53424
       O   -16.98861  -15.60238   -5.38325
      H1   -17.93134  -15.67996   -5.13534
       H   -16.39732   -9.72656   -6.19188
       O   -16.09203   -9.23603   -5.40045
      H1   -16.27902   -8.30568   -5.61548
       H   -15.96539  -13.25871   -1.54411
       O   -15.72989  -14.13658   -1.18955
      H1   -16.40592  -14.29871   -0.51209
       H   -13.33475  -12.86291   -8.74873
       O   -12.87234  -13.57623   -9.22800
      H1   -13.12265  -13.43952  -10.16237

