60
frame 1 | Written by MDAnalysis XYZWriter (release 2.4.3)
       H   -17.74544   16.77917  -14.65885
       O   -17.96510   16.47632  -15.56863
      H1   -17.76925   15.55247  -15.52332
       H    -7.96558   16.83368  -15.00659
       O    -7.72225   17.09151  -14.14421
      H1    -8.39434   17.76263  -13.90983
       H   -14.37993   14.80978  -15.46945
       O   -14.66546   15.71461  -15.25376
      H1   -14.89251   15.62092  -14.34386
       H   -13.74501   12.97995  -16.84620
       O   -13.27131   13.48486  -16.16053
      H1   -12.57589   13.97975  -16.63860
       H   -11.44063   15.82020  -15.13403
       O   -10.94946   14.99781  -15.07502
      H1   -10.08008   15.17018  -15.47372
       H   -14.27088   13.16902  -13.11967
       O   -15.08039   13.70684  -13.15351
      H1   -15.74757   13.05585  -12.90556
       H   -16.40862   17.24530  -17.48397
       O   -15.88147   16.45066  -17.69396
      H1   -15.53000   16.20007  -16.86739
       H   -11.65883   14.32307   -9.23400
       O   -11.55733   15.21309   -8.86440
      H1   -10.59745   15.24847   -8.81207
       H   -13.04869   14.91289  -11.27948
       O   -13.98977   14.87466  -11.00720
      H1   -14.46209   14.54594  -11.79433
       H    -9.73503   18.32273  -10.66926
       O   -10.39433   17.69467  -10.92434
      H1   -11.12498   17.98185  -10.40165
       H   -15.62030   17.90102  -13.27226
       O   -16.58084   17.93080  -13.25203
      H1   -16.74817   18.44440  -12.46304
       H   -13.20550   17.50754  -13.24902
       O   -13.88144   17.60102  -12.59780
      H1   -13.78603   16.78891  -12.06066
       H    -9.89504   18.77121  -12.78742
       O   -10.05316   18.78518  -13.71965
      H1   -10.40384   17.94365  -13.91444
       H   -11.61163   12.31048  -13.33583
       O   -12.54191   12.39999  -13.61758
      H1   -12.46732   12.79501  -14.48719
       H   -13.96436   13.76359   -9.59391
       O   -14.45234   13.35732   -8.83874
      H1   -14.59869   12.41878   -9.04017
       H    -9.35380   16.40044   -9.99878
       O    -8.99019   15.71981   -9.42867
      H1    -8.32966   16.22136   -8.93561
       H   -10.48370   17.08422  -16.77682
       O    -9.68322   17.30064  -16.33006
      H1    -9.02555   16.70389  -16.76211
       H   -13.77732   16.69619   -9.79726
       O   -13.17584   17.30212   -9.36711
      H1   -12.41903   16.75798   -9.10109
       H   -12.27990   18.12305  -15.16013
       O   -12.46807   17.24295  -14.79037
      H1   -13.17336   16.89847  -15.33727
       H   -11.01273   16.16484  -12.31173
       O   -11.46305   15.28151  -12.31058
      H1   -11.24852   15.05072  -13.23083

