60
frame 1 | Written by MDAnalysis XYZWriter (release 2.4.3)
       H     7.48263    7.96967  -14.49491
       O     7.87717    7.51531  -15.25864
      H1     8.71046    7.13811  -14.90601
       H    11.08121   10.39096  -16.48512
       O    11.42651   10.63061  -17.34225
      H1    12.33671   10.34776  -17.27894
       H     8.64644    4.40094  -17.34153
       O     8.20617    3.56072  -17.37185
      H1     8.56558    3.18983  -18.19142
       H    10.82254   10.88526  -14.17094
       O    10.64545    9.96668  -14.38986
      H1     9.75579   10.08338  -14.78040
       H     8.68150    8.00801  -18.08321
       O     8.09785    8.68072  -18.49262
      H1     8.06236    8.39400  -19.43703
       H     9.26937    5.62276  -11.72045
       O     9.24700    5.95777  -12.63694
      H1     8.71176    5.32335  -13.13570
       H     6.65021    3.99494  -13.41343
       O     6.20606    4.67335  -13.92641
      H1     5.92649    4.15303  -14.68995
       H     8.91506   10.52192  -18.58183
       O     8.79054   11.46108  -18.83559
      H1     9.65326   11.78761  -18.55328
       H    10.49029    7.02945  -13.70118
       O    10.50844    7.19061  -14.66667
      H1    10.53630    8.14052  -14.71430
       H    12.71331    3.38749  -18.63014
       O    12.94962    3.25653  -17.70362
      H1    12.46449    3.92397  -17.22671
       H     7.45761   10.27401  -15.20376
       O     8.22885   10.74802  -15.59014
      H1     7.78883   11.34087  -16.20657
       H    12.26786    7.25315  -14.59477
       O    13.10307    6.83540  -14.53888
      H1    13.68610    7.50178  -14.11905
       H     6.51229    9.66698  -18.31702
       O     6.01963   10.32265  -18.87033
      H1     6.72552   10.72335  -19.45143
       H     5.01218    8.09153  -16.75722
       O     5.76971    7.73993  -17.22861
      H1     6.39164    7.62416  -16.51956
       H     6.29642    3.29775  -16.91404
       O     5.72649    3.00337  -16.17468
      H1     6.21256    2.35650  -15.64434
       H     9.13405    2.91223  -16.01345
       O     9.76676    2.64486  -15.32965
      H1     9.35198    2.99393  -14.53749
       H    12.55449    4.57351  -15.11742
       O    11.82033    4.46467  -15.74748
      H1    11.44843    3.61302  -15.53927
       H     4.37608    5.28372  -18.72116
       O     4.86660    5.94846  -19.20260
      H1     5.27105    6.44780  -18.47241
       H     8.72509    6.62751  -16.60873
       O     9.41523    6.24223  -17.19431
      H1    10.13116    6.10062  -16.57321
       H    13.56538    8.25337  -18.30578
       O    13.10800    8.28471  -17.46136
      H1    13.29871    7.44573  -17.07723

