60
frame 1 | Written by MDAnalysis XYZWriter (release 2.4.3)
       H    16.40112   -0.16851  -10.22491
       O    16.02491    0.62634   -9.80088
      H1    15.05443    0.50718   -9.86385
       H    19.17729   -2.61434  -15.99799
       O    18.88223   -3.49185  -15.88600
      H1    18.20433   -3.53780  -16.54616
       H    14.79819   -2.90258  -14.93062
       O    15.52131   -3.16703  -14.33645
      H1    15.41717   -4.14037  -14.30329
       H    18.37110   -7.63243  -12.36668
       O    17.69315   -7.19908  -12.86997
      H1    17.70135   -6.31990  -12.46421
       H    12.80674   -4.65311  -13.41604
       O    12.19549   -4.04725  -13.86194
      H1    11.47061   -3.90929  -13.30027
       H    17.11093   -2.21268   -7.17907
       O    17.45957   -2.91753   -7.70949
      H1    18.36134   -2.61282   -7.74858
       H    14.40351   -6.57267  -13.13441
       O    14.49340   -5.62146  -13.39053
      H1    14.71829   -5.16760  -12.57397
       H    13.73238   -2.79203  -11.36872
       O    14.57644   -3.20664  -11.24549
      H1    15.16102   -2.44794  -11.16484
       H    18.58385   -6.15954  -15.75802
       O    17.69944   -6.47151  -15.59863
      H1    17.68090   -6.54502  -14.63596
       H    15.07562   -6.26048  -16.99472
       O    15.70845   -5.78456  -17.53091
      H1    16.48009   -5.80729  -16.97221
       H    17.30848   -9.13441  -14.69178
       O    17.58318   -9.26604  -15.62037
      H1    17.80552   -8.37466  -15.91002
       H    14.91341   -5.82600   -6.46215
       O    15.04474   -5.76685   -7.40505
      H1    15.12620   -4.81095   -7.53991
       H    17.49213   -4.80190  -10.81391
       O    17.24496   -4.55219  -11.73157
      H1    16.65990   -3.75972  -11.62132
       H    17.00488   -1.19485  -12.23186
       O    16.97028   -1.48792  -11.29562
      H1    17.77065   -2.02261  -11.18198
       H    16.90368   -0.46896  -14.81275
       O    16.57333   -0.67870  -13.91187
      H1    15.97237   -1.43742  -14.03697
       H    17.22668   -6.55010   -9.62123
       O    17.86181   -5.88348   -9.38282
      H1    17.87680   -5.90170   -8.41934
       H    14.91038   -7.91792  -11.35177
       O    15.09611   -8.02149  -12.29560
      H1    16.02473   -7.75798  -12.39453
       H    14.55180   -3.41220   -9.32741
       O    14.87829   -3.28535   -8.42978
      H1    15.81422   -3.16028   -8.53888
       H    15.61810   -7.03741   -8.95523
       O    15.69698   -7.74301   -9.62744
      H1    15.97323   -8.57566   -9.16342
       H    17.55685   -4.40802   -6.84499
       O    17.94164   -5.21645   -6.54142
      H1    17.19490   -5.84605   -6.47474

