60
frame 3 | Written by MDAnalysis XYZWriter (release 2.4.3)
       H   -16.92415   -4.86959   13.74830
       O   -16.18093   -4.28983   13.58392
      H1   -16.18940   -3.69607   14.37341
       H   -14.38362   -0.62067   14.68882
       O   -13.43635   -0.88598   14.65376
      H1   -13.29569   -1.74727   14.27100
       H   -16.68447   -2.85543   12.80259
       O   -16.80616   -1.94320   12.47158
      H1   -17.56666   -1.95448   11.87099
       H   -18.39059    1.91312   14.68723
       O   -18.04214    2.53152   14.08819
      H1   -17.38406    2.16112   13.50608
       H   -18.28881   -6.08229   15.02912
       O   -18.65883   -5.67927   14.22105
      H1   -19.32962   -6.27434   13.86759
       H   -18.41626   -5.63834   18.99154
       O   -17.71358   -4.98568   18.99553
      H1   -17.38176   -4.92383   19.93792
       H   -16.68806   -0.52680   13.95221
       O   -16.21107   -0.20643   14.76121
      H1   -16.34214   -0.93333   15.43387
       H   -17.36130   -2.29049   19.61468
       O   -17.90171   -1.60621   19.20764
      H1   -18.67717   -2.08027   18.92226
       H   -14.64467    3.26320   18.18901
       O   -14.70535    2.43719   17.60724
      H1   -14.42889    1.74433   18.20339
       H   -10.65689   -0.68019   19.23190
       O   -11.32254   -0.03549   19.48897
      H1   -12.05936   -0.25193   18.88913
       H   -14.53155   -6.27196   19.23048
       O   -15.35281   -6.67950   18.87941
      H1   -15.94577   -5.91260   18.75087
       H   -13.51890   -6.77355   16.78244
       O   -14.07154   -6.15195   16.25410
      H1   -15.04824   -6.32536   16.42486
       H   -16.61456   -7.18444   15.42054
       O   -16.67337   -6.38909   16.02786
      H1   -16.91153   -6.69161   16.88118
       H   -12.93679   -1.30216   16.52840
       O   -12.74466   -1.52858   17.46332
      H1   -12.02641   -2.23352   17.44743
       H   -15.98976   -9.50805   17.86192
       O   -15.81452   -9.38887   18.76916
      H1   -15.72416   -8.44693   18.80270
       H   -16.39657   -2.88402   16.69127
       O   -16.84884   -2.75220   15.86902
      H1   -17.81948   -2.62460   16.11552
       H   -18.14880    3.20478   17.97145
       O   -17.58169    2.33656   18.02840
      H1   -16.67844    2.48849   17.69115
       H   -18.19016    1.28088   16.93480
       O   -18.57292    0.62205   16.27807
      H1   -17.81943    0.14232   15.84374
       H   -14.44822   -4.41000   17.03144
       O   -14.54783   -3.65747   17.63546
      H1   -13.88783   -2.98549   17.40047
       H   -13.71001   -5.43224   14.65192
       O   -13.67869   -5.04760   13.75425
      H1   -14.56477   -4.66247   13.68305

