60
frame 1 | Written by MDAnalysis XYZWriter (release 2.4.3)
       H    -3.94780    4.43872   14.21134
       O    -4.88694    4.32378   14.16240
      H1    -5.21083    5.12813   14.60117
       H    -4.44043   -2.08628   13.99108
       O    -4.36774   -1.27119   13.48126
      H1    -5.30298   -1.10103   13.28938
       H    -5.80745    4.57200   10.55099
       O    -5.90116    4.28394   11.49475
      H1    -5.39223    4.92637   11.95823
       H    -4.40070   -0.58886   15.41194
       O    -4.34285   -0.19911   16.29950
      H1    -5.22467   -0.38745   16.61847
       H    -4.73045    4.25854   17.78896
       O    -3.81334    4.46899   17.58853
      H1    -3.64553    5.15382   18.24221
       H    -3.11924    6.11642   16.41217
       O    -3.34157    7.02829   16.63270
      H1    -2.85621    7.53856   15.97261
       H    -3.57623    2.23354   12.45503
       O    -3.63347    2.51096   11.51305
      H1    -4.41615    3.08505   11.51718
       H    -6.31104    0.95452   18.25713
       O    -7.00401    1.25215   17.64328
      H1    -6.58395    1.95180   17.11137
       H    -6.65894    1.86750   15.44044
       O    -6.58382    2.81268   15.61731
      H1    -5.78759    3.11677   15.14859
       H    -8.66316    5.50711   13.92962
       O    -8.96644    6.33500   14.31598
      H1    -8.26111    6.52132   14.96466
       H    -7.25419   -1.65967   16.98930
       O    -6.84259   -1.18685   16.24297
      H1    -7.15277   -0.30310   16.41734
       H    -3.43395    2.63702   17.07026
       O    -2.79408    1.91513   16.95947
      H1    -3.32825    1.17847   16.59200
       H    -9.95691    0.82476   18.23131
       O    -9.69942    1.59903   17.69316
      H1    -8.75445    1.49431   17.50826
       H    -2.84650    0.53530   14.38079
       O    -2.95893    1.30518   13.83825
      H1    -2.11989    1.78017   13.93238
       H    -3.83110    6.41057   12.24950
       O    -4.74320    6.76812   12.18138
      H1    -5.01039    6.99489   13.08168
       H    -5.49567    8.14860   14.74138
       O    -5.25383    7.20844   14.69136
      H1    -4.58416    7.08996   15.35585
       H    -0.34935    3.26789   14.29752
       O    -0.65122    2.38973   14.55960
      H1    -1.36760    2.54372   15.16343
       H    -7.84344    2.18840   13.48624
       O    -8.02487    1.23793   13.35015
      H1    -7.70689    1.07153   12.44984
       H    -1.50901    5.33535   15.22960
       O    -2.20321    4.92569   14.70024
      H1    -1.96270    5.20430   13.82853
       H    -7.22285    4.23728   12.70777
       O    -7.83000    4.13055   13.45196
      H1    -7.28412    3.81799   14.18607

