60
frame 1 | Written by MDAnalysis XYZWriter (release 2.4.3)
       H   -10.92307   10.50888   -2.11745
       O   -11.57612   10.36012   -2.83337
      H1   -11.99996    9.54929   -2.55451
       H    -8.87103   11.23255   -2.02233
       O    -9.41249   10.92280   -1.27531
      H1    -9.15871   11.48360   -0.51273
       H    -8.34692   14.18732   -0.32759
       O    -8.48052   13.23216   -0.24680
      H1    -8.03470   12.92303    0.55700
       H   -11.11487   13.47149   -2.66144
       O   -11.27030   13.79857   -3.57819
      H1   -11.75547   14.64505   -3.49300
       H    -7.95781   16.77376   -1.03849
       O    -7.98168   15.90992   -0.64465
      H1    -7.81313   16.10817    0.27743
       H    -7.92559    8.41883   -1.15903
       O    -7.14904    8.76629   -0.73424
      H1    -6.75963    8.01942   -0.23579
       H    -5.24279   13.14753   -1.47953
       O    -6.10183   13.54317   -1.49267
      H1    -6.64770   12.74067   -1.40424
       H    -9.75885   15.59951   -1.11086
       O   -10.43156   15.76574   -1.76489
      H1   -11.26993   15.46153   -1.33681
       H   -12.74605   11.46496   -2.07603
       O   -13.49247   12.00605   -1.78521
      H1   -13.06338   12.57452   -1.16412
       H   -11.70261    9.69866    3.80481
       O   -10.77943    9.64838    4.01975
      H1   -10.29805    9.69615    3.16648
       H    -8.86110   10.04464    1.40194
       O    -9.25381    9.20069    1.61101
      H1    -9.88184    8.99388    0.90967
       H    -6.60676   10.97371    1.74671
       O    -7.39039   11.09791    1.22078
      H1    -7.20775   10.43458    0.55490
       H    -7.96626   12.18873   -4.20310
       O    -7.53958   11.42014   -3.79111
      H1    -8.06042   10.73208   -4.20693
       H    -8.53262   13.42918    3.44306
       O    -7.97010   13.47925    2.65783
      H1    -7.83921   14.44545    2.61665
       H    -9.48057   10.61155   -5.43632
       O    -9.56114    9.87379   -4.80017
      H1   -10.19526   10.18783   -4.18063
       H   -12.64680    9.81526    0.10856
       O   -11.76950    9.47443    0.31774
      H1   -11.94534    9.32370    1.26725
       H   -11.30505   13.54173    1.67118
       O   -10.98011   13.91434    0.80847
      H1   -10.10973   13.52394    0.70609
       H   -12.26028    8.27337   -1.05982
       O   -12.04778    7.84949   -1.90858
      H1   -11.13525    8.04429   -2.12162
       H    -8.51972    6.83340   -2.50957
       O    -9.00311    7.65731   -2.68147
      H1    -8.84053    7.89266   -3.59432
       H    -6.03499    9.93558   -1.49272
       O    -5.35776   10.50777   -1.88000
      H1    -5.66269   10.77531   -2.76669

