60
frame 2 | Written by MDAnalysis XYZWriter (release 2.4.3)
       H    -8.44887   15.15555   13.61409
       O    -8.15671   14.26206   13.68511
      H1    -8.17349   14.00477   14.58743
       H   -11.15714   19.59483   18.46841
       O   -10.62903   18.85946   18.19213
      H1    -9.90116   19.19270   17.60451
       H    -8.76379   13.93985   16.93093
       O    -7.97572   14.39003   16.60693
      H1    -8.19061   15.30806   16.65413
       H   -13.45128   15.12584   14.20682
       O   -14.02060   14.46035   13.76735
      H1   -14.88964   14.82896   14.09459
       H   -18.85917   16.92518   17.36826
       O   -18.36465   16.22681   16.95004
      H1   -19.01269   15.61032   16.63760
       H   -12.26502   17.81822   17.64207
       O   -13.02922   17.23449   17.45017
      H1   -13.73231   17.81024   17.32659
       H   -15.60527   18.28809   17.50359
       O   -15.34697   18.36267   16.56165
      H1   -15.24176   19.36488   16.49354
       H   -11.74362   16.10302   11.22741
       O   -11.63674   17.01085   10.96324
      H1   -11.90146   17.59487   11.68259
       H   -12.46810   16.35774   15.61276
       O   -12.27986   16.11540   14.75060
      H1   -11.46699   15.58454   14.74829
       H   -11.49059   12.98482   16.81128
       O   -12.02066   13.59185   17.32265
      H1   -11.43925   14.27714   17.70429
       H    -5.84096   17.58550   14.34263
       O    -6.28622   18.22163   14.87282
      H1    -6.08617   19.12292   14.58640
       H   -16.02385   19.44468   19.34584
       O   -15.20998   18.90766   19.31792
      H1   -14.48432   19.59806   19.24221
       H    -6.12737   14.50118   17.18935
       O    -5.27648   14.59503   17.59590
      H1    -5.03721   15.50867   17.28440
       H   -16.62187   14.48285   15.20495
       O   -16.19388   15.28190   15.50708
      H1   -16.88717   15.75616   16.04142
       H   -16.23852   18.90905   14.64538
       O   -16.34900   19.78152   14.22317
      H1   -15.61024   19.73365   13.60933
       H    -8.69286   17.13085   12.85636
       O    -9.33632   17.23241   13.57519
      H1   -10.04486   17.77058   13.31558
       H    -5.07494   18.00863   16.92925
       O    -4.50078   17.22556   17.00330
      H1    -3.80744   17.49827   17.59340
       H   -14.12122   14.40827   17.88841
       O   -15.06201   14.35846   18.05572
      H1   -15.38013   15.05246   17.43675
       H    -8.82550   17.13064   15.27145
       O    -8.41502   17.07249   16.10876
      H1    -7.60740   17.53944   15.90097
       H   -12.00254   18.08121   14.11390
       O   -11.58585   18.60186   13.40102
      H1   -11.84779   19.50740   13.60202

