60
frame 1 | Written by MDAnalysis XYZWriter (release 2.4.3)
       H     2.69303  -10.17466    2.33786
       O     1.82997   -9.79577    2.13559
      H1     1.81889  -10.04857    1.21433
       H    -0.79701   -6.39243    3.67599
       O    -1.51886   -6.87132    4.12781
      H1    -1.55372   -7.70017    3.64782
       H    -3.39972  -10.83579    4.63221
       O    -3.43530  -11.36502    3.81200
      H1    -2.77384  -10.88923    3.26370
       H     2.08993   -6.95460    3.62334
       O     1.57998   -7.66819    4.00747
      H1     1.61279   -8.32069    3.28414
       H     0.65545  -15.27396    5.94790
       O     1.05627  -15.93917    6.50529
      H1     1.42770  -16.57532    5.88729
       H    -3.02184   -9.19186    6.74091
       O    -2.81968  -10.12273    6.55001
      H1    -3.36599  -10.60939    7.17791
       H    -1.56032   -6.70171    7.22548
       O    -2.14512   -7.37574    6.83081
      H1    -2.03029   -7.16285    5.91442
       H     4.81853  -14.14138    3.53697
       O     4.96619  -13.40755    4.15646
      H1     4.24539  -13.47124    4.80800
       H     1.05253   -9.02537    6.81868
       O     1.90631   -8.63182    6.59510
      H1     1.81988   -8.32812    5.66691
       H     0.96766  -10.56334    3.57349
       O     0.32435  -10.87604    4.19650
      H1     0.69876  -10.64361    5.05335
       H     2.51045  -14.78633    2.62777
       O     2.18220  -13.88151    2.63747
      H1     1.49740  -13.90165    1.96955
       H    -1.15361  -13.18457    6.91373
       O    -0.29677  -12.91243    7.26122
      H1     0.32532  -12.82330    6.52561
       H     2.71478  -12.41825    6.44721
       O     2.36905  -11.51336    6.36782
      H1     2.44450  -11.24387    7.28578
       H    -3.93528  -14.32748    4.28656
       O    -3.13929  -14.12442    3.83880
      H1    -3.19519  -13.15840    3.81161
       H    -1.47186   -9.67014    2.06368
       O    -1.69113   -9.46937    3.00117
      H1    -0.94639   -9.83596    3.54430
       H     3.93913   -9.20541    5.90867
       O     4.70692   -9.45456    5.36891
      H1     5.06370   -8.59345    5.10697
       H    -2.63654  -13.02544    0.51835
       O    -2.32022  -12.11008    0.59719
      H1    -1.43024  -12.19934    0.23845
       H     4.60017  -11.64461    3.63661
       O     4.02246  -10.99069    3.26305
      H1     3.89950  -10.36431    4.00199
       H    -1.11268  -10.19830    6.92429
       O    -0.22189  -10.11721    7.31769
      H1     0.07853  -11.02993    7.30943
       H     1.14409  -13.96060    4.05380
       O     0.45607  -14.05193    4.75779
      H1    -0.22156  -13.43097    4.46081

