60
frame 1 | Written by MDAnalysis XYZWriter (release 2.4.3)
       H   -16.72853    4.40775    1.01141
       O   -17.06667    3.84807    1.75089
      H1   -16.79268    2.94524    1.51173
       H   -15.49204   -2.53281    5.53392
       O   -15.68756   -1.99624    4.78141
      H1   -15.14653   -1.19496    4.88665
       H   -16.61840    4.90866    5.02080
       O   -16.35300    5.44621    5.77245
      H1   -16.06900    4.79730    6.43279
       H   -18.37877    6.15510    6.19486
       O   -18.95563    6.84163    5.78983
      H1   -19.42286    6.34897    5.12039
       H   -14.10701    7.65874    5.15995
       O   -15.02747    7.86957    5.41329
      H1   -15.29026    7.06917    5.82498
       H   -11.70005    4.18918    8.57536
       O   -12.13610    3.44390    8.11257
      H1   -12.63903    3.95007    7.42028
       H   -16.81244   -1.42543    7.86969
       O   -16.42672   -1.85209    8.65241
      H1   -17.18401   -2.38775    8.93799
       H   -14.83891    4.50650    2.91511
       O   -14.16759    5.14699    3.18550
      H1   -13.38493    4.89724    2.71261
       H   -15.92557    0.87034    6.63005
       O   -15.10033    1.31260    6.68410
      H1   -14.42753    0.70029    6.39699
       H   -12.71096    4.31226    5.52740
       O   -13.18820    4.97459    6.02860
      H1   -13.89004    5.23133    5.40642
       H   -10.89656    2.93531    5.03008
       O   -11.79957    2.76137    4.71621
      H1   -11.93745    1.88018    5.06780
       H   -15.78668    4.38069    8.80753
       O   -16.53521    3.87466    8.46621
      H1   -16.31686    2.96729    8.61550
       H   -15.62802    1.10609    3.61412
       O   -14.76649    0.66513    3.41841
      H1   -14.10272    1.35983    3.33517
       H   -18.35443   -0.56740    6.88762
       O   -17.45261   -0.60622    6.56859
      H1   -17.47902   -1.36636    5.92303
       H   -12.07187    2.64272    3.13090
       O   -12.57258    2.47757    2.29053
      H1   -12.02449    1.84362    1.79816
       H   -19.06401    0.28714    3.45873
       O   -18.19443    0.10857    3.80391
      H1   -17.92085   -0.61436    3.20393
       H   -14.91720    1.38053    8.47227
       O   -15.08636    1.33100    9.42636
      H1   -14.47393    1.96659    9.80014
       H   -12.41292   -0.25264    6.82175
       O   -13.05318   -0.76609    6.33783
      H1   -12.53162   -1.25592    5.69794
       H   -13.95917    5.96137    8.09417
       O   -14.55322    5.54533    8.74032
      H1   -14.28981    5.87648    9.59380
       H   -15.88965    2.50995    5.48927
       O   -16.38962    2.61489    4.64557
      H1   -17.26388    2.37325    4.93564

