60
frame 1 | Written by MDAnalysis XYZWriter (release 2.4.3)
       H     7.39724  -15.07013   -8.13939
       O     6.81674  -15.51612   -7.49735
      H1     7.45419  -15.92841   -6.86409
       H     7.31841  -15.16207   -0.74279
       O     7.24341  -15.96440   -1.24843
      H1     8.08069  -16.09468   -1.71596
       H     5.90933  -18.23426   -0.20703
       O     5.55431  -18.87644   -0.82925
      H1     6.33129  -19.15082   -1.31549
       H     4.32988  -14.45129   -4.04435
       O     3.68382  -15.16054   -3.92327
      H1     3.36087  -15.04700   -3.01841
       H     6.11595  -13.66282    0.74686
       O     6.31966  -14.46613    1.18380
      H1     5.68322  -15.06874    0.79201
       H     4.60950  -16.73800   -3.45753
       O     4.87528  -17.62773   -3.61311
      H1     5.18136  -17.90267   -2.72063
       H     3.35440  -18.07006   -4.58544
       O     2.39076  -18.01249   -4.71296
      H1     2.09478  -18.91059   -4.82900
       H     3.11156  -16.67082    2.41328
       O     2.64051  -16.55434    1.58539
      H1     1.78947  -16.92076    1.81268
       H     8.47735  -14.44022   -2.94520
       O     8.21382  -14.45096   -3.84749
      H1     8.39755  -15.36707   -4.12792
       H    10.17927  -15.72721   -2.69478
       O     9.70824  -16.46123   -2.30748
      H1     9.72751  -17.10406   -3.05218
       H     4.34808  -16.89985    0.41384
       O     4.71922  -16.15591   -0.03091
      H1     5.16213  -16.57714   -0.74922
       H     1.94564  -15.83317   -5.04408
       O     1.13407  -15.44228   -5.34508
      H1     0.42726  -16.00554   -5.03859
       H     9.83218  -15.61681   -6.02321
       O     9.16231  -16.27236   -5.80129
      H1     9.59840  -17.13341   -5.95396
       H     4.60883  -16.55156   -7.30609
       O     4.37261  -17.49028   -7.54715
      H1     4.66268  -17.88410   -6.72651
       H     6.34114  -19.40728   -5.97156
       O     6.48533  -18.44192   -5.93752
      H1     6.14749  -18.19042   -5.08217
       H     2.62120  -14.26474   -1.11240
       O     2.60477  -15.20086   -1.48143
      H1     3.14059  -15.67169   -0.82738
       H     6.03678  -19.11769    2.79211
       O     5.22969  -18.60784    2.53703
      H1     4.49666  -18.99284    3.02553
       H     1.98315  -18.05954   -2.82874
       O     1.40910  -18.21101   -2.07230
      H1     1.75470  -19.01335   -1.66177
       H     8.10913  -19.17565   -8.16354
       O     8.30922  -18.28502   -7.89833
      H1     7.61734  -18.05837   -7.23081
       H     6.45219  -14.32559   -5.83982
       O     5.93800  -13.74833   -5.24571
      H1     6.50284  -13.67473   -4.48716

