60
frame 1 | Written by MDAnalysis XYZWriter (release 2.4.3)
       H    -9.15076   -4.58448  -14.24839
       O    -8.28545   -4.77600  -14.58517
      H1    -7.63218   -4.58859  -13.89239
       H    -8.59546  -11.80625  -16.66395
       O    -7.78217  -11.43026  -17.01315
      H1    -7.09311  -12.04220  -16.75139
       H   -10.28820   -9.93444  -15.01315
       O   -10.78137   -9.10939  -14.81716
      H1   -10.68375   -8.62242  -15.64234
       H   -13.34126   -9.69213  -13.58641
       O   -13.38123  -10.30623  -12.89725
      H1   -12.90253   -9.86310  -12.18984
       H    -6.65672   -6.22704  -16.85963
       O    -7.06741   -6.79496  -16.18630
      H1    -7.66425   -6.23184  -15.68094
       H    -5.53248   -7.74495  -14.96103
       O    -4.98112   -8.02072  -14.22411
      H1    -5.10436   -8.96333  -14.19926
       H   -12.04661   -3.44941  -15.27174
       O   -12.30628   -3.14370  -16.13693
      H1   -11.86206   -2.27547  -16.18826
       H   -13.70801   -6.88199  -18.14194
       O   -13.05649   -7.19917  -18.76547
      H1   -12.37442   -7.57435  -18.12476
       H    -7.01675  -13.50603  -19.26260
       O    -7.11452  -12.56625  -19.39036
      H1    -7.48536  -12.24520  -18.56254
       H   -10.15575   -7.86649  -17.23429
       O   -10.92172   -7.34177  -17.06135
      H1   -10.65039   -6.45085  -17.27776
       H    -7.89663   -9.65437  -17.40338
       O    -8.17441   -8.74330  -17.64434
      H1    -7.50886   -8.20360  -17.19811
       H   -15.63028   -5.81746  -17.45608
       O   -15.07343   -6.52516  -17.16018
      H1   -15.64844   -7.26191  -16.85889
       H    -4.51080   -9.96474  -16.82023
       O    -5.36425   -9.86361  -16.42122
      H1    -6.00016   -9.91524  -17.13811
       H    -6.53788   -7.21165  -13.03351
       O    -7.10557   -6.89212  -12.33141
      H1    -7.86559   -7.50716  -12.33268
       H    -8.15354   -3.62629  -15.87556
       O    -8.11789   -3.22680  -16.75484
      H1    -7.30720   -3.55793  -17.13687
       H   -10.50708   -7.23064  -12.18175
       O    -9.85048   -7.93114  -12.14106
      H1   -10.22786   -8.55508  -12.78179
       H   -12.94997   -5.34677  -18.82145
       O   -12.66007   -4.44395  -18.60229
      H1   -12.75787   -4.48742  -17.64840
       H   -10.75784   -4.61104  -18.01495
       O    -9.83318   -4.88895  -17.97511
      H1    -9.38593   -4.23332  -17.44857
       H   -11.72528  -10.99030  -16.26610
       O   -12.09378  -11.11670  -17.16956
      H1   -12.80768  -11.74994  -17.07907
       H    -8.85664  -11.54988  -14.54469
       O    -9.63829  -11.70950  -15.07490
      H1    -9.78440  -12.65636  -14.90649

