60
frame 1 | Written by MDAnalysis XYZWriter (release 2.4.3)
       H    17.72048  -12.09129  -10.30655
       O    18.04852  -11.28268   -9.84592
      H1    17.47795  -11.17628   -9.06648
       H    14.79819   -2.90258  -14.93062
       O    15.52131   -3.16703  -14.33645
      H1    15.41717   -4.14037  -14.30329
       H    15.38443  -10.24382   -7.53827
       O    16.19821  -10.10969   -8.02102
      H1    16.84936   -9.79844   -7.36158
       H    18.37110   -7.63243  -12.36668
       O    17.69315   -7.19908  -12.86997
      H1    17.70135   -6.31990  -12.46421
       H    12.80674   -4.65311  -13.41604
       O    12.19549   -4.04725  -13.86194
      H1    11.47061   -3.90929  -13.30027
       H    14.40351   -6.57267  -13.13441
       O    14.49340   -5.62146  -13.39053
      H1    14.71829   -5.16760  -12.57397
       H    11.24942   -7.02547  -12.79006
       O    11.33643   -7.98727  -12.80168
      H1    11.35874   -8.20263  -13.73836
       H    13.73238   -2.79203  -11.36872
       O    14.57644   -3.20664  -11.24549
      H1    15.16102   -2.44794  -11.16484
       H    17.15718  -11.28596  -12.40592
       O    16.72248  -12.11531  -12.66041
      H1    16.31892  -11.92637  -13.50007
       H    18.58385   -6.15954  -15.75802
       O    17.69944   -6.47151  -15.59863
      H1    17.68090   -6.54502  -14.63596
       H    15.07562   -6.26048  -16.99472
       O    15.70845   -5.78456  -17.53091
      H1    16.48009   -5.80729  -16.97221
       H    17.30848   -9.13441  -14.69178
       O    17.58318   -9.26604  -15.62037
      H1    17.80552   -8.37466  -15.91002
       H    17.49213   -4.80190  -10.81391
       O    17.24496   -4.55219  -11.73157
      H1    16.65990   -3.75972  -11.62132
       H    14.90750   -9.28928  -15.04804
       O    14.74539   -9.84264  -14.28900
      H1    14.79299   -9.22582  -13.52425
       H    17.22668   -6.55010   -9.62123
       O    17.86181   -5.88348   -9.38282
      H1    17.87680   -5.90170   -8.41934
       H    12.60538   -9.68543  -15.11168
       O    11.68305   -9.40892  -15.07795
      H1    11.27498  -10.05555  -14.49468
       H    14.91038   -7.91792  -11.35177
       O    15.09611   -8.02149  -12.29560
      H1    16.02473   -7.75798  -12.39453
       H    13.48939   -7.74756  -15.08189
       O    13.87078   -7.48946  -15.91546
      H1    13.13856   -7.39584  -16.53335
       H    15.61810   -7.03741   -8.95523
       O    15.69698   -7.74301   -9.62744
      H1    15.97323   -8.57566   -9.16342
       H    18.83148  -10.65325  -12.68403
       O    18.35577   -9.90807  -12.30913
      H1    18.33719  -10.03159  -11.35993

