60
frame 1 | Written by MDAnalysis XYZWriter (release 2.4.3)
       H     5.60521   -7.08749   -2.43201
       O     4.72852   -7.40093   -2.23315
      H1     4.77344   -7.62939   -1.28432
       H     5.81224   -6.75895   -8.53008
       O     5.69105   -6.24210   -7.72851
      H1     5.15603   -6.83948   -7.20532
       H     3.66507   -7.80406   -5.98719
       O     4.52398   -8.16395   -5.82675
      H1     4.73125   -7.98510   -4.91000
       H    10.74660   -7.05839   -3.45644
       O     9.97456   -7.49495   -3.92395
      H1     9.74395   -8.23457   -3.34987
       H     4.61288   -4.32401   -2.09251
       O     5.04548   -4.20718   -1.22411
      H1     5.94484   -3.85608   -1.46307
       H     8.05415   -7.92785   -7.64472
       O     8.77019   -7.43801   -8.04036
      H1     8.35616   -6.54219   -8.14507
       H     7.33853   -8.32065   -3.12853
       O     7.43937   -7.53084   -2.57743
      H1     8.31595   -7.18419   -2.84346
       H     6.19502   -9.52629   -8.01385
       O     6.61136   -9.17429   -7.24277
      H1     5.91001   -8.67256   -6.79756
       H     6.63027   -2.60591   -4.66853
       O     6.03959   -2.51271   -3.90570
      H1     6.35137   -1.74652   -3.38217
       H     7.53730   -4.91051   -7.64860
       O     8.25262   -4.77503   -8.26759
      H1     7.81678   -4.20760   -8.91538
       H     7.88974   -1.80171   -6.55135
       O     7.54756   -2.64653   -6.25080
      H1     8.30475   -3.20849   -6.35696
       H    10.75438   -7.82400   -5.56335
       O    11.18917   -8.09239   -6.37687
      H1    10.50483   -7.90497   -6.99084
       H     6.60935  -10.34623   -3.99033
       O     6.49214   -9.40820   -4.28854
      H1     6.77757   -9.44645   -5.19365
       H     7.18902   -5.04485   -4.64851
       O     6.60372   -5.76482   -4.75394
      H1     7.09079   -6.45277   -4.27202
       H     8.18238   -8.94503   -1.27389
       O     8.86094   -9.40984   -0.77649
      H1     9.07658  -10.14398   -1.34840
       H     8.37449   -4.73236   -1.22997
       O     8.99215   -5.46258   -1.34269
      H1     8.80180   -5.94670   -0.54598
       H     3.94259   -5.88294   -3.28513
       O     4.06908   -5.07659   -3.77856
      H1     4.99666   -4.98599   -3.97969
       H     9.93197   -3.74426   -5.19737
       O    10.59598   -3.64710   -5.91711
      H1    10.92748   -4.54665   -6.12618
       H     8.89506   -4.71647   -3.13617
       O     8.75515   -4.21221   -3.95898
      H1     8.63318   -3.31699   -3.63288
       H     6.95879   -2.83347   -2.44280
       O     7.40860   -2.99019   -1.60119
      H1     7.44655   -2.11624   -1.22715

