60
frame 1 | Written by MDAnalysis XYZWriter (release 2.4.3)
       H    -0.40438    1.77424    3.67203
       O    -0.00107    1.95602    4.50978
      H1     0.84853    2.36886    4.23512
       H    -1.91842    0.54367    1.80440
       O    -1.94400    1.09286    2.57193
      H1    -2.52534    0.55765    3.13930
       H    -3.85100   -1.32493    3.37465
       O    -3.91500   -0.55525    3.96339
      H1    -3.86839   -0.97557    4.85321
       H    -5.42587    2.41011    3.44552
       O    -5.71054    2.39794    2.49540
      H1    -4.92969    1.94755    2.09787
       H    -6.93481    1.05933    2.24125
       O    -7.42686    0.25159    2.57748
      H1    -8.09888    0.01732    1.88675
       H    -3.97513    3.07899    7.82766
       O    -3.69391    2.28126    7.37612
      H1    -4.34315    2.21748    6.64446
       H    -1.00718    2.91009    5.73100
       O    -1.63574    3.55295    6.01151
      H1    -2.24925    2.97251    6.47464
       H    -0.01317   -0.65995    4.12145
       O     0.21956   -1.42835    3.54524
      H1     1.06068   -1.75270    3.87947
       H     2.53721   -0.16718    2.59712
       O     1.84486    0.05177    1.96138
      H1     1.10243   -0.37850    2.35724
       H    -0.39141    3.99212    1.89100
       O     0.54851    4.26910    1.93128
      H1     1.00770    3.50091    1.54231
       H    -6.18557   -1.18987    1.98028
       O    -5.40749   -1.52158    1.49053
      H1    -5.13347   -2.34033    1.94182
       H    -2.59998    2.86514    2.42360
       O    -2.80529    3.71657    2.08076
      H1    -3.00563    4.24240    2.86608
       H    -1.83862   -1.69441    0.68984
       O    -1.67792   -0.79892    0.38537
      H1    -2.60791   -0.45117    0.30247
       H    -0.99224   -2.46821    4.50024
       O    -1.49428   -3.28757    4.40708
      H1    -1.03683   -3.84153    3.78161
       H    -2.57734   -3.51141    1.58993
       O    -2.12136   -3.48949    0.76625
      H1    -2.73849   -4.05718    0.20994
       H    -4.36550    0.78961   -0.14906
       O    -3.96813    0.69321    0.72370
      H1    -4.69220    0.42394    1.26520
       H    -0.86161    0.36366    6.74739
       O    -0.75186   -0.39505    6.12808
      H1    -0.74794   -1.14202    6.73799
       H    -4.60567    0.99966    4.56027
       O    -5.13428    1.69698    4.99385
      H1    -5.85851    1.26373    5.49194
       H    -4.72625   -3.86521    3.65579
       O    -4.04538   -3.48442    3.08126
      H1    -3.29546   -3.41243    3.71825
       H    -3.41108   -2.46767    6.53101
       O    -3.35745   -1.51247    6.36423
      H1    -2.43138   -1.40466    6.30641

