60
frame 1 | Written by MDAnalysis XYZWriter (release 2.4.3)
       H    14.61895    4.81945   13.03313
       O    14.21856    4.02997   12.60319
      H1    13.72268    4.42226   11.88082
       H    14.55413    2.42680   11.35718
       O    15.11974    1.85871   10.80074
      H1    15.97526    2.23846   11.06025
       H     9.60490    3.75108   10.34791
       O    10.31599    3.80512    9.69600
      H1    10.40288    2.88625    9.37112
       H    14.44766    5.58570    7.51460
       O    13.84125    6.02654    8.11850
      H1    13.44094    5.31677    8.65719
       H     9.44917    1.02479   13.09795
       O    10.31711    1.30711   13.41044
      H1    10.13136    2.24267   13.62998
       H    15.97968    1.90731    7.16543
       O    16.77903    2.37443    6.92048
      H1    17.04399    2.91945    7.65817
       H    17.77850    4.79073    9.13664
       O    16.90798    4.57591    8.84895
      H1    16.48823    4.17727    9.63215
       H    11.56950    1.09552   12.29494
       O    12.24529    1.17524   11.61828
      H1    12.86810    0.46859   11.87362
       H    16.17474    6.54455    9.21374
       O    16.20682    7.53358    9.14900
      H1    15.83174    7.82252    9.99085
       H    11.82640    1.17457    9.84115
       O    11.78739    1.55812    8.95096
      H1    12.65158    1.40208    8.55573
       H     7.34685    2.96230   11.41662
       O     8.31615    3.01241   11.37529
      H1     8.53498    2.29809   10.75675
       H    11.38702    5.85441   14.75225
       O    10.59256    5.87389   14.21742
      H1    10.71116    6.72951   13.77279
       H    11.03833    5.81119   11.82924
       O    11.56509    6.53817   11.51197
      H1    11.37685    6.62121   10.57988
       H    13.36042    6.95403   12.57625
       O    13.94925    6.75319   13.30029
      H1    13.85920    7.53712   13.88877
       H    12.97804    3.15926   13.75466
       O    12.43606    2.75983   14.43317
      H1    12.02515    2.00522   14.00269
       H    14.30957    0.28286    7.48403
       O    14.33922    1.07774    8.01806
      H1    14.82321    0.76643    8.79675
       H    13.43294    3.23094    9.20272
       O    13.20577    3.97914    9.78970
      H1    12.44458    3.64382   10.29857
       H    12.29427    7.32844    9.49288
       O    11.55326    7.10099    8.92466
      H1    11.96988    6.70338    8.16284
       H    14.87476    0.32280   12.23296
       O    14.40161   -0.45863   12.59988
      H1    14.53519   -0.38377   13.54720
       H     8.57849    6.48657    8.47071
       O     8.48151    5.62925    8.03867
      H1     9.18505    5.15634    8.44573

