60
frame 2 | Written by MDAnalysis XYZWriter (release 2.4.3)
       H    18.38982   17.05863  -16.77309
       O    19.27433   17.09921  -17.16143
      H1    19.14507   17.58764  -17.96524
       H    17.94986   16.87291   -7.75270
       O    17.03145   16.62061   -7.73076
      H1    17.15570   15.82828   -7.19203
       H    16.68539   16.65768  -12.54143
       O    16.92103   16.94181  -11.62028
      H1    16.56745   16.31043  -10.96930
       H    12.23995   19.92612   -6.65034
       O    12.93325   19.22967   -6.85315
      H1    12.32027   18.45798   -6.99426
       H    16.96803   16.42045  -15.61011
       O    16.72865   17.07299  -16.35249
      H1    15.83065   17.34608  -16.28730
       H    12.58830   16.17075   -9.30041
       O    13.01377   16.66642   -9.99235
      H1    12.46721   16.36954  -10.78414
       H    15.79152   18.31642  -11.10204
       O    15.30036   19.10756  -10.83182
      H1    14.39694   18.75993  -10.91751
       H    18.34527   19.98815  -10.81990
       O    18.79607   19.32616  -11.28951
      H1    18.15567   18.59252  -11.30077
       H    17.37919   19.49720   -4.73716
       O    18.27143   19.14983   -4.38195
      H1    18.73338   19.84049   -3.94416
       H    15.57977   19.38400  -13.00786
       O    15.40958   19.62436  -13.91172
      H1    16.32782   19.60796  -14.34783
       H    15.46163   18.87552   -9.02461
       O    15.67907   18.96390   -8.07834
      H1    16.25814   18.17341   -7.97887
       H    12.44782   19.95873  -10.81431
       O    12.60208   19.31904  -11.53041
      H1    12.40266   19.67920  -12.39699
       H    18.10544   12.47927   -8.43832
       O    17.84979   13.09028   -9.11423
      H1    18.62153   13.51680   -9.46155
       H    17.34516   18.80134  -16.16926
       O    17.57152   19.48501  -15.55580
      H1    18.40229   19.20291  -15.12350
       H    14.50220   15.50351   -9.82108
       O    15.36778   15.13512   -9.73422
      H1    15.66740   15.48325   -8.89361
       H    19.26751   15.33217  -11.29972
       O    19.57948   15.02357  -10.42051
      H1    19.14419   15.62829   -9.80186
       H    14.05340   16.91515   -5.91668
       O    13.94704   16.58813   -5.01946
      H1    13.13905   16.03288   -5.10172
       H    19.08546   16.07635  -13.86654
       O    18.26989   15.97044  -14.40064
      H1    18.35970   15.05449  -14.79343
       H    14.76162   18.49490  -15.18138
       O    14.33417   17.93575  -15.88001
      H1    14.13735   17.10299  -15.36737
       H    15.73518   19.55426   -6.35224
       O    15.83581   19.78386   -5.40559
      H1    15.12447   19.24246   -4.91034

