60
frame 1 | Written by MDAnalysis XYZWriter (release 2.4.3)
       H    -7.85653    4.45786   -0.87334
       O    -8.18887    5.34857   -0.75977
      H1    -8.27458    5.42773    0.19866
       H   -12.26179    6.19424   -1.13826
       O   -12.40165    5.31173   -0.78984
      H1   -11.60109    4.82747   -1.09831
       H    -9.69027    6.01199    7.19195
       O    -9.29702    6.22587    6.33092
      H1    -9.15175    5.37679    5.94745
       H    -9.89353    4.30705   -2.47254
       O   -10.18041    3.88156   -1.62839
      H1    -9.68965    4.42855   -0.98058
       H    -5.19226    5.48093   -0.24316
       O    -4.89196    4.56347   -0.29653
      H1    -5.11139    4.14627    0.53989
       H    -8.51483    8.23884    2.89347
       O    -8.33243    7.65455    3.63802
      H1    -8.70529    8.11897    4.39242
       H    -5.42587    2.41011    3.44552
       O    -5.71054    2.39794    2.49540
      H1    -4.92969    1.94755    2.09787
       H   -10.89656    2.93531    5.03008
       O   -11.79957    2.76137    4.71621
      H1   -11.93745    1.88018    5.06780
       H    -6.93481    1.05933    2.24125
       O    -7.42686    0.25159    2.57748
      H1    -8.09888    0.01732    1.88675
       H    -8.95742    3.25040    3.93082
       O    -8.95461    3.62489    4.80462
      H1    -8.02658    3.93385    4.88187
       H    -8.79468    0.82783    3.71739
       O    -9.34072    0.73304    4.51995
      H1    -8.88515    1.36469    5.13404
       H    -9.66122    2.32403   -0.94014
       O    -9.22305    1.66084   -0.40561
      H1    -9.94138    1.15918   -0.02148
       H   -10.18543    5.55814    1.81275
       O    -9.28467    5.88821    1.72319
      H1    -9.00864    6.18055    2.60913
       H    -8.86727    3.96230    1.66790
       O    -8.71314    3.09837    2.06263
      H1    -8.82118    2.54273    1.28367
       H   -12.07187    2.64272    3.13090
       O   -12.57258    2.47757    2.29053
      H1   -12.02449    1.84362    1.79816
       H    -5.96108    6.53206    1.23107
       O    -5.54042    7.06755    0.52486
      H1    -4.60496    7.14885    0.81268
       H    -6.37872    3.67373   -2.63396
       O    -6.74307    3.39406   -1.76924
      H1    -6.07634    3.82911   -1.18623
       H   -11.87957    3.94688    1.63238
       O   -11.76937    4.89340    1.68767
      H1   -12.10369    5.25185    0.88501
       H    -6.09236    4.09390    2.56194
       O    -6.03558    5.05564    2.45910
      H1    -5.27556    5.29454    3.00368
       H   -12.14672    0.39670   -0.11748
       O   -11.63321    0.50660    0.69495
      H1   -11.27176   -0.37390    0.81845

