60
frame 1 | Written by MDAnalysis XYZWriter (release 2.4.3)
       H    14.73833   -3.64070   -2.97124
       O    15.17864   -3.17471   -2.24116
      H1    14.63872   -3.46545   -1.50191
       H    12.04202   -6.85930   -1.99179
       O    11.99677   -6.02922   -2.50404
      H1    12.88013   -5.70561   -2.50925
       H    12.55567   -8.51428    2.13441
       O    12.93537   -8.42174    1.26421
      H1    12.18684   -8.37311    0.69518
       H    12.22674   -6.38123    1.80975
       O    12.52464   -5.76202    2.46620
      H1    12.01918   -4.95537    2.30170
       H    10.74660   -7.05839   -3.45644
       O     9.97456   -7.49495   -3.92395
      H1     9.74395   -8.23457   -3.34987
       H     7.33853   -8.32065   -3.12853
       O     7.43937   -7.53084   -2.57743
      H1     8.31595   -7.18419   -2.84346
       H    10.75438   -7.82400   -5.56335
       O    11.18917   -8.09239   -6.37687
      H1    10.50483   -7.90497   -6.99084
       H    10.67811   -8.88141   -1.11034
       O    11.53732   -8.43766   -1.16980
      H1    12.07538   -9.06844   -1.68715
       H    11.78917   -2.77477   -2.70725
       O    12.01635   -2.01365   -3.26039
      H1    12.46249   -2.42035   -4.01182
       H     8.18238   -8.94503   -1.27389
       O     8.86094   -9.40984   -0.77649
      H1     9.07658  -10.14398   -1.34840
       H    14.94248   -7.79584    0.84828
       O    15.86752   -8.06265    0.72281
      H1    16.34303   -7.22402    0.60176
       H     8.37449   -4.73236   -1.22997
       O     8.99215   -5.46258   -1.34269
      H1     8.80180   -5.94670   -0.54598
       H    16.66838   -6.12587   -1.76128
       O    16.00667   -6.78822   -2.00737
      H1    16.52773   -7.57416   -2.11238
       H     8.89506   -4.71647   -3.13617
       O     8.75515   -4.21221   -3.95898
      H1     8.63318   -3.31699   -3.63288
       H    14.89539   -4.76861   -0.14970
       O    14.16016   -4.19941    0.16514
      H1    14.53656   -3.79184    0.95059
       H    14.29872  -10.18854   -2.78629
       O    13.36960   -9.93401   -2.92122
      H1    13.01206  -10.53381   -3.58168
       H    10.59864   -3.96988    0.46826
       O    10.41495   -4.40319    1.32283
      H1    10.00795   -3.69286    1.81881
       H    11.54603   -4.62779   -1.52611
       O    11.48318   -3.76029   -1.11398
      H1    12.24285   -3.72705   -0.52541
       H    14.83048   -6.35780   -3.26893
       O    14.40324   -5.82026   -3.92838
      H1    13.96023   -6.50975   -4.45259
       H    13.65972   -8.88696   -4.28788
       O    13.86619   -8.32045   -5.06383
      H1    13.74036   -8.94299   -5.78245

