60
frame 1 | Written by MDAnalysis XYZWriter (release 2.4.3)
       H     0.63258  -13.36400    8.73815
       O     1.00725  -13.19199    9.60757
      H1     1.37539  -14.03248    9.86611
       H     3.93098  -14.28771   13.28635
       O     3.69485  -13.35795   13.31260
      H1     3.54830  -13.18207   14.24230
       H     0.46174  -14.76791   14.08844
       O     1.07910  -14.53456   13.37580
      H1     1.68792  -13.89568   13.79942
       H     2.86355  -16.61069    9.15879
       O     2.52049  -15.71378    9.10423
      H1     2.27107  -15.63876    8.17412
       H     4.60239  -17.74047    6.56846
       O     4.79138  -16.82486    6.76897
      H1     5.44154  -16.62214    6.07562
       H     3.42498  -19.11019    8.68907
       O     3.58661  -18.15314    8.78521
      H1     4.55848  -18.12358    8.61737
       H     8.75598  -17.53644    9.63594
       O     9.07271  -17.45127    8.72460
      H1     9.85772  -16.90350    8.74415
       H     1.64102  -19.11462    6.79788
       O     2.38686  -18.56997    6.42760
      H1     2.87352  -18.24793    7.21835
       H     9.67876  -17.91003   11.73171
       O     8.94176  -17.37792   11.37161
      H1     8.28836  -18.09082   11.28797
       H     5.20618  -15.42962   11.64591
       O     5.95855  -14.89047   11.38340
      H1     5.99761  -15.09173   10.45056
       H     8.26931  -16.44062   13.04326
       O     8.10715  -16.41350   13.99690
      H1     8.86914  -16.82979   14.38813
       H     5.85961  -19.00445   13.54203
       O     6.05112  -18.47685   14.30851
      H1     6.73629  -17.92961   13.95676
       H     4.07787  -18.47436   11.85385
       O     4.25725  -17.59651   11.46169
      H1     4.12868  -17.75682   10.50368
       H     5.29577  -12.01520    9.53997
       O     4.84140  -11.96686   10.37275
      H1     4.88679  -12.88085   10.65885
       H    -0.23011  -18.00911   13.98619
       O     0.26442  -18.80535   14.15397
      H1    -0.41197  -19.49596   14.08107
       H     5.28448  -15.50245    7.94799
       O     5.26193  -14.58160    8.13932
      H1     5.95946  -14.22698    7.59597
       H     2.76019  -16.49845   15.68086
       O     2.35823  -16.68389   16.52712
      H1     2.79202  -17.47818   16.84390
       H     6.08331  -18.20555   10.96228
       O     6.67806  -18.65434   10.37142
      H1     6.62058  -19.57541   10.64404
       H     0.43924  -16.17475   12.26729
       O     0.66870  -16.87694   11.62298
      H1     0.38584  -16.53173   10.76428
       H     2.45309  -15.96330   13.49446
       O     3.19030  -16.30821   14.04307
      H1     3.50780  -17.11812   13.58128

