60
frame 1 | Written by MDAnalysis XYZWriter (release 2.4.3)
       H    -2.46889   -4.12451   11.53016
       O    -2.29794   -4.50972   12.40775
      H1    -3.02971   -4.16787   12.95037
       H    -0.76840   -4.57502    6.63792
       O    -0.78093   -5.04000    7.45819
      H1     0.11947   -5.34847    7.60340
       H    -3.38917   -1.02142   11.69911
       O    -3.21132   -0.55759   10.87416
      H1    -3.87434    0.13588   10.76837
       H    -4.44043   -2.08628   13.99108
       O    -4.36774   -1.27119   13.48126
      H1    -5.30298   -1.10103   13.28938
       H     0.56604   -2.43003    7.84027
       O    -0.37874   -2.35633    8.04149
      H1    -0.62680   -3.27208    8.09883
       H    -5.51843   -7.27171   12.73113
       O    -6.07245   -6.51916   12.46996
      H1    -6.24026   -6.73228   11.55036
       H    -2.83736   -2.36162    9.94672
       O    -2.15880   -3.05439    9.88447
      H1    -1.39438   -2.58095    9.47697
       H     1.50182   -5.10477   14.07991
       O     1.44307   -4.12649   14.17000
      H1     1.94401   -3.89422   14.97709
       H    -0.12786   -0.97313   11.44862
       O    -0.45902   -0.84804   10.54883
      H1    -1.41768   -0.76426   10.61857
       H    -3.42531   -5.09884    6.83028
       O    -3.79821   -4.23038    7.02742
      H1    -4.34576   -4.43183    7.80208
       H    -5.22422   -4.00485   11.89069
       O    -5.90193   -3.35582   11.59769
      H1    -6.35295   -3.21217   12.43847
       H    -6.01003   -4.67924    9.96265
       O    -5.87954   -4.73326    9.02194
      H1    -6.55264   -4.15610    8.67566
       H    -0.00993   -4.91763   16.68900
       O    -0.03107   -3.97601   16.46535
      H1     0.13636   -3.99810   15.50656
       H     1.14055   -1.24399   13.11483
       O     0.25232   -1.58593   13.08206
      H1     0.35127   -2.49109   13.36253
       H    -0.48447   -0.04562   15.54410
       O    -1.27896   -0.57860   15.46518
      H1    -1.14444   -1.08103   14.62753
       H    -1.99939   -8.14416   12.74578
       O    -1.59411   -7.42395   13.25574
      H1    -1.77437   -6.60681   12.76124
       H    -4.22277   -4.64100   14.88743
       O    -3.86741   -3.79767   14.59294
      H1    -3.18736   -3.57545   15.23906
       H    -2.78744   -6.38144    9.29844
       O    -2.97502   -7.32432    9.42764
      H1    -2.72232   -7.75748    8.59700
       H     0.17712   -4.03467   10.81564
       O     0.68716   -3.46567   10.25206
      H1     0.41577   -2.58595   10.51708
       H    -2.85831   -6.68733   14.66711
       O    -3.52529   -6.80239   15.32381
      H1    -3.17627   -6.34784   16.14636

