60
frame 1 | Written by MDAnalysis XYZWriter (release 2.4.3)
       H    17.94701   -7.61619    4.66350
       O    18.80417   -7.33968    4.32564
      H1    18.80101   -6.40850    4.59830
       H    15.88412   -4.18818    8.77103
       O    16.75505   -4.04347    9.19717
      H1    17.03835   -4.87924    9.53679
       H    13.77587   -6.96807    8.03988
       O    13.64520   -6.71704    8.95754
      H1    12.97860   -7.37902    9.24207
       H    17.89763   -3.84937    7.66311
       O    18.76972   -3.70973    7.28335
      H1    18.69739   -4.15839    6.41910
       H    12.68641   -8.06006    5.90099
       O    13.44153   -8.52671    6.22831
      H1    13.23970   -9.48115    6.15111
       H    15.30784   -3.72783    5.90205
       O    15.24460   -4.45180    6.55132
      H1    16.13892   -4.86441    6.58917
       H    11.40432   -6.38291    5.79375
       O    11.09941   -7.30357    5.77345
      H1    10.94311   -7.53885    6.70743
       H    12.73363   -5.78277    4.41915
       O    12.77434   -5.16585    5.14441
      H1    13.69134   -4.91239    5.31079
       H    11.96035   -4.13614    8.33984
       O    11.61606   -5.02843    8.08118
      H1    12.36333   -5.63959    8.22705
       H    16.44381   -4.05803    2.87045
       O    17.23041   -3.51470    2.91340
      H1    17.12708   -2.97498    2.10142
       H    15.48313   -5.85160    3.51648
       O    15.06922   -5.14677    2.99748
      H1    14.11632   -5.36481    3.06623
       H    15.84472   -8.16441    3.76539
       O    15.64614   -7.40192    4.36128
      H1    14.90149   -7.72103    4.89717
       H    11.89579   -2.07776    9.51949
       O    12.61479   -2.55528    9.08631
      H1    13.26808   -2.67558    9.80637
       H    16.50079   -2.42470    4.09511
       O    15.96459   -2.10315    4.84358
      H1    16.65147   -1.84266    5.47069
       H    17.09862   -1.22548    7.61312
       O    17.57932   -1.14790    6.79066
      H1    18.16366   -1.92602    6.77167
       H    13.17126   -0.58970    6.04659
       O    13.89946   -0.08303    5.66076
      H1    14.50506   -0.66184    5.16108
       H    17.29644   -6.91170    7.00079
       O    17.13812   -6.26000    6.30953
      H1    16.41890   -6.57433    5.72037
       H    12.03191   -3.43046    4.59843
       O    11.51327   -2.68331    4.28786
      H1    11.42030   -2.17668    5.10534
       H    11.06756   -0.83236    6.91604
       O    11.76342   -1.45073    6.62080
      H1    12.29457   -1.52714    7.45639
       H    16.06141   -8.11526    9.00321
       O    16.67890   -8.47148    8.38206
      H1    16.49117   -9.41588    8.42431

