60
frame 1 | Written by MDAnalysis XYZWriter (release 2.4.3)
       H   -13.70342   -1.49452   -4.85954
       O   -14.14623   -2.30250   -5.17258
      H1   -14.48273   -2.73941   -4.37105
       H   -12.02746   -3.84811   -2.87497
       O   -11.67578   -4.17713   -3.68824
      H1   -10.93224   -4.73855   -3.42238
       H   -11.47630   -2.63224   -0.98369
       O   -12.31320   -2.99590   -1.27580
      H1   -12.69431   -3.28552   -0.42561
       H   -13.07295   -6.70278   -4.43678
       O   -13.78805   -6.43839   -3.82200
      H1   -13.50794   -5.57478   -3.51148
       H   -12.46476    2.77602   -6.20117
       O   -12.24423    3.66025   -5.87405
      H1   -11.69882    3.44838   -5.10033
       H   -15.62152    3.75213   -5.82497
       O   -16.24069    3.13042   -6.23225
      H1   -15.89885    2.27923   -5.91969
       H   -13.54558    0.44116   -8.09437
       O   -14.38391    0.45843   -8.55135
      H1   -14.43820    1.38297   -8.85506
       H   -11.60201   -3.64581   -7.77250
       O   -10.79113   -3.12899   -7.77256
      H1   -10.09221   -3.70817   -7.43897
       H   -13.95499    0.87739   -3.89748
       O   -13.12360    0.48954   -4.14267
      H1   -12.44683    1.05207   -3.73134
       H   -13.84638   -3.29400   -6.81022
       O   -13.70996   -3.80701   -7.61225
      H1   -13.76549   -3.12883   -8.29519
       H    -8.78607   -1.60185   -2.17623
       O    -9.49820   -1.32143   -1.61217
      H1   -10.08338   -0.89368   -2.22168
       H   -12.26629    0.50834   -5.72660
       O   -12.32874    0.71818   -6.68324
      H1   -11.40332    0.67429   -6.99654
       H   -10.84998   -2.25820   -4.89213
       O   -10.71352   -1.61670   -5.61143
      H1   -10.70743   -2.12625   -6.39433
       H   -15.38696   -0.37591   -5.47349
       O   -15.69786    0.43574   -5.93093
      H1   -15.24088    0.39525   -6.75327
       H   -15.22685   -2.87857   -2.38261
       O   -15.13371   -3.75559   -2.79745
      H1   -15.41170   -4.34662   -2.11093
       H   -17.73675   -3.26233   -8.41925
       O   -17.50218   -2.98422   -7.53560
      H1   -17.07365   -3.73881   -7.15990
       H   -12.51963   -1.35514   -1.49920
       O   -12.28772   -0.41880   -1.72534
      H1   -12.66614   -0.33565   -2.60126
       H   -14.42847   -0.44494   -1.37319
       O   -15.04437   -1.17827   -1.37514
      H1   -15.90450   -0.76911   -1.60683
       H   -15.76514    2.57023   -2.90090
       O   -15.49201    1.65736   -2.76778
      H1   -16.26366    1.13736   -3.05544
       H   -18.03520   -2.68595   -4.56729
       O   -18.11103   -1.83520   -4.11266
      H1   -18.35857   -1.26586   -4.87900

