60
frame 1 | Written by MDAnalysis XYZWriter (release 2.4.3)
       H    -9.15076   -4.58448  -14.24839
       O    -8.28545   -4.77600  -14.58517
      H1    -7.63218   -4.58859  -13.89239
       H   -16.48779   -5.09627  -12.81845
       O   -15.95965   -5.27078  -13.61118
      H1   -16.68689   -5.42160  -14.22399
       H   -10.28820   -9.93444  -15.01315
       O   -10.78137   -9.10939  -14.81716
      H1   -10.68375   -8.62242  -15.64234
       H   -17.99850   -5.10706  -16.42692
       O   -17.51935   -5.82580  -15.99194
      H1   -17.57757   -6.54046  -16.63260
       H    -6.65672   -6.22704  -16.85963
       O    -7.06741   -6.79496  -16.18630
      H1    -7.66425   -6.23184  -15.68094
       H   -10.52533   -0.67255  -15.09824
       O   -11.05432   -0.79277  -15.90161
      H1   -11.68130   -0.06339  -15.89243
       H   -12.04661   -3.44941  -15.27174
       O   -12.30628   -3.14370  -16.13693
      H1   -11.86206   -2.27547  -16.18826
       H   -13.70801   -6.88199  -18.14194
       O   -13.05649   -7.19917  -18.76547
      H1   -12.37442   -7.57435  -18.12476
       H   -10.15575   -7.86649  -17.23429
       O   -10.92172   -7.34177  -17.06135
      H1   -10.65039   -6.45085  -17.27776
       H    -7.89663   -9.65437  -17.40338
       O    -8.17441   -8.74330  -17.64434
      H1    -7.50886   -8.20360  -17.19811
       H   -15.63028   -5.81746  -17.45608
       O   -15.07343   -6.52516  -17.16018
      H1   -15.64844   -7.26191  -16.85889
       H   -10.37779   -1.08123  -19.22124
       O   -10.82552   -0.43335  -18.64897
      H1   -10.28947   -0.48850  -17.83224
       H   -12.02025   -2.17588  -12.21642
       O   -12.88528   -1.74366  -12.32382
      H1   -13.28835   -2.12880  -13.11294
       H    -8.15354   -3.62629  -15.87556
       O    -8.11789   -3.22680  -16.75484
      H1    -7.30720   -3.55793  -17.13687
       H   -14.84782   -3.75258  -13.86945
       O   -14.36760   -2.95274  -14.09845
      H1   -14.00491   -3.14821  -14.97836
       H   -16.88464   -8.89187  -15.61013
       O   -16.47834   -8.89777  -16.49940
      H1   -16.13228   -9.80277  -16.60259
       H   -12.94997   -5.34677  -18.82145
       O   -12.66007   -4.44395  -18.60229
      H1   -12.75787   -4.48742  -17.64840
       H   -10.67718   -2.55590  -13.93879
       O   -10.73497   -3.52227  -13.89736
      H1   -10.46358   -3.76949  -13.01116
       H   -10.75784   -4.61104  -18.01495
       O    -9.83318   -4.88895  -17.97511
      H1    -9.38593   -4.23332  -17.44857
       H   -16.02437   -2.01954  -13.94047
       O   -16.68996   -1.52800  -13.43237
      H1   -17.36153   -2.22258  -13.22833

