60
frame 1 | Written by MDAnalysis XYZWriter (release 2.4.3)
       H   -15.78981    8.23613   10.30028
       O   -15.10731    8.90989   10.42443
      H1   -14.30571    8.32531   10.34451
       H   -15.90251   11.96748   11.44076
       O   -15.59438   11.88076   10.53621
      H1   -15.20163   11.01855   10.56246
       H   -16.87550    5.58007   16.68921
       O   -17.19685    5.54868   15.75219
      H1   -17.89976    4.87190   15.75114
       H   -15.97917    7.42011   13.54855
       O   -15.75768    6.46666   13.55731
      H1   -16.42691    6.12656   14.12693
       H   -18.20076    9.06918   15.89451
       O   -17.66555    9.84305   15.72402
      H1   -18.31160   10.55310   15.64101
       H   -18.81945    9.10723   11.46332
       O   -18.39920    8.42957   11.99774
      H1   -19.13528    7.94889   12.42676
       H   -17.08090    8.94197   13.02333
       O   -16.29050    9.13380   13.53809
      H1   -16.63601    9.35692   14.41972
       H   -18.46208    7.87148    8.99155
       O   -17.75752    7.53479    9.54771
      H1   -18.05219    7.77501   10.43124
       H   -15.16273    3.22218   11.28452
       O   -15.92370    2.77607   11.70703
      H1   -16.04981    1.97756   11.19402
       H   -15.66209   12.36935   13.59305
       O   -16.45941   11.94487   13.21939
      H1   -16.27013   10.98724   13.35777
       H   -18.36854   11.54563   10.98382
       O   -18.26661   10.90392   10.30037
      H1   -17.28062   10.89073   10.19181
       H   -15.78668    4.38069    8.80753
       O   -16.53521    3.87466    8.46621
      H1   -16.31686    2.96729    8.61550
       H   -14.48717    4.89809   14.66950
       O   -13.64264    4.49180   14.88716
      H1   -13.84454    3.55970   15.05401
       H   -13.42229    6.48160   11.29626
       O   -14.12766    5.83895   11.43884
      H1   -14.57208    6.03833   12.27878
       H   -17.62032    3.44135   12.22329
       O   -18.38668    3.91752   12.53712
      H1   -18.48108    4.65997   11.91688
       H   -19.60908   11.44787   13.61643
       O   -19.12645   11.89733   14.32884
      H1   -18.19601   11.75124   14.10580
       H   -19.07066    7.52774   17.09577
       O   -19.17039    7.74183   16.13766
      H1   -18.80866    6.93891   15.75837
       H   -17.90176    4.48685    9.42312
       O   -18.59037    4.96110    9.92957
      H1   -18.33936    5.88407    9.89808
       H   -17.42644    9.64274    7.25705
       O   -16.68688    9.60627    7.89282
      H1   -17.06745    9.06989    8.57633
       H   -13.95917    5.96137    8.09417
       O   -14.55322    5.54533    8.74032
      H1   -14.28981    5.87648    9.59380

