60
frame 1 | Written by MDAnalysis XYZWriter (release 2.4.3)
       H    18.64901  -18.93357  -15.41830
       O    18.55830  -19.29673  -14.53215
      H1    18.22270  -18.54316  -14.02341
       H    17.68198  -14.71761  -15.95313
       O    16.92963  -14.18292  -16.08954
      H1    16.80414  -14.33899  -17.06109
       H    12.67032  -12.90252  -12.25370
       O    13.51851  -12.58273  -11.97248
      H1    14.11474  -12.72538  -12.72413
       H    13.99149  -17.00769  -14.15796
       O    13.44811  -16.79870  -14.92677
      H1    13.19689  -15.87291  -14.79172
       H    17.39655  -14.56231   -8.17268
       O    17.36902  -13.91395   -7.45787
      H1    16.67454  -13.30460   -7.72519
       H    17.72048  -12.09129  -10.30655
       O    18.04852  -11.28268   -9.84592
      H1    17.47795  -11.17628   -9.06648
       H    11.84185  -18.39831  -10.60122
       O    11.14835  -17.86802  -10.97725
      H1    11.37862  -17.72706  -11.90085
       H    13.46970  -15.91915  -17.78876
       O    14.40168  -15.96390  -18.04789
      H1    14.74921  -16.63510  -17.42234
       H    17.76577  -16.44673  -10.18967
       O    17.30847  -16.36378   -9.35803
      H1    17.99183  -16.54920   -8.68149
       H    15.08328  -12.00391  -15.05868
       O    14.88339  -12.91584  -14.73006
      H1    15.58300  -13.47040  -15.10505
       H    14.12929  -18.51557   -7.70663
       O    13.53537  -19.27226   -7.56147
      H1    12.74769  -18.92105   -7.13778
       H    16.36463  -16.60560  -15.65440
       O    16.27885  -17.33480  -16.33296
      H1    15.83573  -18.04079  -15.87512
       H    14.92293  -16.68833  -11.67943
       O    14.98437  -17.30077  -12.43645
      H1    15.09584  -18.15791  -12.04656
       H    17.15718  -11.28596  -12.40592
       O    16.72248  -12.11531  -12.66041
      H1    16.31892  -11.92637  -13.50007
       H    12.25812  -16.73882  -10.01782
       O    12.46547  -16.04636   -9.40345
      H1    13.36691  -15.79624   -9.66644
       H    17.21579  -13.60734  -11.83275
       O    17.61173  -14.17642  -11.14603
      H1    18.19859  -14.77527  -11.57654
       H    16.78656  -17.45633  -12.24704
       O    17.74665  -17.53283  -12.27519
      H1    17.88793  -18.39168  -11.81955
       H    14.40965  -14.36222  -11.19221
       O    14.76183  -15.15201  -10.79504
      H1    15.62401  -14.91600  -10.47215
       H    15.84911  -16.84392   -8.64647
       O    15.11783  -16.98399   -8.04544
      H1    14.84056  -16.10493   -7.74485
       H    19.31988  -18.37934  -17.37462
       O    19.04833  -17.81346  -16.62020
      H1    18.16040  -17.55600  -16.85667

