60
frame 0 | Written by MDAnalysis XYZWriter (release 2.4.3)
       H   -19.14076  -11.89279  -16.28085
       O   -18.47755  -12.55080  -16.56088
      H1   -17.85346  -12.50412  -15.78311
       H   -18.97327  -13.43458  -10.49434
       O   -18.35164  -12.82306  -10.09358
      H1   -17.82749  -13.40957   -9.51427
       H   -12.04099  -16.68082  -16.75892
       O   -13.00355  -16.82477  -16.74347
      H1   -13.22420  -16.78201  -15.80188
       H   -17.57085  -15.26138   -8.78427
       O   -16.99645  -14.48406   -8.62586
      H1   -16.36111  -14.51564   -9.36466
       H   -18.81547  -17.27480  -12.50573
       O   -18.66845  -16.86798  -11.64646
      H1   -18.85458  -17.55639  -11.00630
       H   -14.88784  -18.83275  -13.22124
       O   -15.36951  -18.66392  -14.01765
      H1   -15.18944  -17.71445  -14.19732
       H   -12.64058  -14.30348  -10.69311
       O   -12.85089  -13.40019  -10.92893
      H1   -13.77279  -13.38425  -10.79496
       H   -16.10067  -15.88776  -16.73645
       O   -15.35494  -15.38716  -17.11614
      H1   -14.57685  -15.96513  -17.11194
       H   -14.89647  -15.63205   -6.39948
       O   -15.39336  -16.44728   -6.22234
      H1   -15.28188  -16.97109   -7.05620
       H   -13.11143  -16.91321  -12.46941
       O   -12.75032  -17.44126  -11.74536
      H1   -13.13584  -18.31070  -11.86579
       H   -17.78171  -15.49789  -13.55459
       O   -18.31235  -14.87987  -14.03708
      H1   -18.09386  -15.10149  -14.97237
       H   -16.42568  -11.26609  -14.63031
       O   -16.01049  -12.00575  -15.12991
      H1   -15.54575  -11.63990  -15.90558
       H   -18.27172  -17.07427  -16.64276
       O   -17.92238  -16.20078  -16.44843
      H1   -18.63389  -15.59612  -16.72212
       H   -15.66891  -17.00206  -10.63380
       O   -15.40842  -16.76678   -9.74583
      H1   -15.74161  -17.49487   -9.20108
       H   -17.72675  -12.42793  -11.71170
       O   -17.46801  -12.12576  -12.59781
      H1   -17.76831  -12.83496  -13.15781
       H   -17.69736  -14.61171   -6.86273
       O   -17.50082  -14.66987   -5.92497
      H1   -17.02307  -15.50297   -5.83110
       H   -17.01995  -16.57697  -11.99807
       O   -16.18972  -16.22133  -12.34658
      H1   -16.16336  -15.32997  -11.98513
       H   -14.88519  -13.21756  -14.04062
       O   -14.18342  -13.78337  -13.74402
      H1   -13.44148  -13.19218  -13.61527
       H   -13.67001  -15.55058  -14.03608
       O   -13.47598  -16.46432  -14.07442
      H1   -12.54862  -16.49070  -13.84159
       H   -15.95470  -13.03947  -11.35138
       O   -15.44787  -13.84595  -11.28232
      H1   -15.13154  -13.95332  -12.18525

