60
frame 1 | Written by MDAnalysis XYZWriter (release 2.4.3)
       H    -8.55458   17.68563   -4.95314
       O    -8.50582   18.43601   -5.58513
      H1    -9.30015   18.91991   -5.37815
       H    -8.32202   14.14858  -10.22448
       O    -7.91578   13.41331  -10.69012
      H1    -7.75132   13.82610  -11.54443
       H    -5.76736   12.24941   -5.12588
       O    -4.78389   12.30124   -5.09623
      H1    -4.48895   11.38913   -5.13315
       H    -9.00734   11.42294   -7.82673
       O    -9.59548   12.18925   -7.98032
      H1   -10.47828   11.86143   -7.75314
       H    -6.11580   12.95891   -8.28380
       O    -5.72520   12.21283   -8.76737
      H1    -4.86550   12.03761   -8.41367
       H    -7.70848   15.05390   -3.81202
       O    -6.79976   14.66919   -3.93832
      H1    -6.51298   14.34968   -3.07897
       H    -6.25130   19.15697   -9.29772
       O    -6.36858   18.40277   -9.87654
      H1    -6.12611   17.64976   -9.32606
       H   -10.98478   12.83055  -11.08625
       O   -11.21089   12.73897  -10.16225
      H1   -10.34574   12.55694   -9.72987
       H    -3.69143   14.88248   -6.82231
       O    -4.58009   14.53683   -6.76348
      H1    -4.50470   13.83727   -6.11437
       H   -11.65883   14.32307   -9.23400
       O   -11.55733   15.21309   -8.86440
      H1   -10.59745   15.24847   -8.81207
       H    -6.36961   14.26297   -6.72251
       O    -7.20076   14.17233   -7.20516
      H1    -7.83507   14.04216   -6.49114
       H    -9.73526   16.31004   -4.85286
       O    -9.06951   16.06206   -4.17404
      H1    -9.61998   15.96631   -3.38096
       H    -7.64912   17.34772   -6.91493
       O    -7.14646   16.86292   -7.57141
      H1    -7.40392   15.96268   -7.49567
       H    -7.96626   12.18873   -4.20310
       O    -7.53958   11.42014   -3.79111
      H1    -8.06042   10.73208   -4.20693
       H    -4.39031   16.96751   -5.90326
       O    -4.30807   17.26218   -6.85411
      H1    -4.94097   16.70177   -7.35109
       H    -4.18332   15.95232   -3.68109
       O    -4.61249   16.69633   -4.13566
      H1    -5.42474   16.27499   -4.46361
       H    -9.51593   12.77168   -6.31102
       O    -9.08617   12.95719   -5.45974
      H1    -9.81241   13.39735   -5.01801
       H    -4.21034   14.74320   -9.49881
       O    -5.09120   14.95289   -9.76654
      H1    -5.69331   14.30075   -9.40025
       H    -9.35380   16.40044   -9.99878
       O    -8.99019   15.71981   -9.42867
      H1    -8.32966   16.22136   -8.93561
       H    -6.74112   10.97683   -8.15224
       O    -7.51845   10.42928   -7.91328
      H1    -7.26353   10.05045   -7.07264

