60
frame 1 | Written by MDAnalysis XYZWriter (release 2.4.3)
       H    -3.99896   17.89849  -12.63040
       O    -3.84154   17.12686  -12.05806
      H1    -4.41776   17.29751  -11.30455
       H    -8.32202   14.14858  -10.22448
       O    -7.91578   13.41331  -10.69012
      H1    -7.75132   13.82610  -11.54443
       H    -7.96558   16.83368  -15.00659
       O    -7.72225   17.09151  -14.14421
      H1    -8.39434   17.76263  -13.90983
       H    -6.90126   14.02781  -13.32046
       O    -7.82358   14.26265  -13.39828
      H1    -7.79643   15.23465  -13.46438
       H   -11.44063   15.82020  -15.13403
       O   -10.94946   14.99781  -15.07502
      H1   -10.08008   15.17018  -15.47372
       H   -10.82598   12.33528  -17.14029
       O    -9.94990   12.54096  -17.47520
      H1    -9.47374   11.71384  -17.32950
       H    -5.16139   14.98913  -12.71689
       O    -5.22849   14.20086  -13.24117
      H1    -5.41164   14.48707  -14.16174
       H    -6.15833   17.63938  -16.68430
       O    -6.78146   16.97342  -17.02206
      H1    -6.31078   16.14079  -17.03584
       H    -3.49395   14.23026  -14.98133
       O    -2.74891   14.03632  -15.56844
      H1    -2.02861   13.83241  -14.95457
       H    -9.73503   18.32273  -10.66926
       O   -10.39433   17.69467  -10.92434
      H1   -11.12498   17.98185  -10.40165
       H    -8.85940   13.80412  -16.46461
       O    -8.49002   14.67109  -16.25975
      H1    -7.88191   14.49314  -15.51882
       H   -12.39936   16.84089  -18.59500
       O   -11.93162   16.01456  -18.34794
      H1   -11.05566   16.02492  -18.78917
       H    -9.89504   18.77121  -12.78742
       O   -10.05316   18.78518  -13.71965
      H1   -10.40384   17.94365  -13.91444
       H    -6.14172   13.56293  -16.28051
       O    -5.68896   14.38985  -16.08006
      H1    -4.82924   14.25440  -16.47578
       H    -4.17531   18.49483  -16.32030
       O    -4.58867   18.05498  -15.54295
      H1    -4.08198   17.24869  -15.47463
       H    -9.35380   16.40044   -9.99878
       O    -8.99019   15.71981   -9.42867
      H1    -8.32966   16.22136   -8.93561
       H   -10.48370   17.08422  -16.77682
       O    -9.68322   17.30064  -16.33006
      H1    -9.02555   16.70389  -16.76211
       H   -12.27990   18.12305  -15.16013
       O   -12.46807   17.24295  -14.79037
      H1   -13.17336   16.89847  -15.33727
       H   -11.01273   16.16484  -12.31173
       O   -11.46305   15.28151  -12.31058
      H1   -11.24852   15.05072  -13.23083
       H    -9.29858   11.50812  -12.74668
       O    -9.88481   12.22847  -12.47939
      H1    -9.32798   12.99982  -12.47357

