60
frame 1 | Written by MDAnalysis XYZWriter (release 2.4.3)
       H    11.01679   -9.83617   -7.29296
       O    10.86687  -10.78549   -7.16845
      H1    10.87478  -11.14986   -8.08568
       H    11.80554  -14.52886   -2.09716
       O    11.00721  -14.26188   -2.56362
      H1    11.31200  -13.91770   -3.39381
       H    17.39655  -14.56231   -8.17268
       O    17.36902  -13.91395   -7.45787
      H1    16.67454  -13.30460   -7.72519
       H    13.85645  -11.11977   -6.47052
       O    13.74502  -10.37467   -7.10502
      H1    13.19779  -10.66600   -7.81341
       H    14.55239  -11.36294   -0.68210
       O    15.41026  -11.20734   -1.08519
      H1    15.52824  -11.99185   -1.62839
       H     9.61854  -11.53169   -3.20253
       O    10.12495  -11.19637   -2.44242
      H1    10.70445  -11.90141   -2.22880
       H    11.23792  -13.83593   -7.16691
       O    11.11563  -14.15111   -6.28135
      H1    11.91649  -14.64230   -6.03456
       H    12.55233  -17.20808   -3.86169
       O    13.22724  -16.53144   -3.65664
      H1    14.01523  -17.05945   -3.56198
       H    15.01037  -14.10445   -2.22713
       O    15.34085  -13.39038   -2.75501
      H1    16.29745  -13.48909   -2.78393
       H    15.38443  -10.24382   -7.53827
       O    16.19821  -10.10969   -8.02102
      H1    16.84936   -9.79844   -7.36158
       H    11.55655  -12.59586   -5.07424
       O    11.88650  -12.31435   -4.21248
      H1    11.18176  -11.70063   -3.89635
       H    13.50398  -15.73777   -1.95287
       O    13.55999  -14.95379   -1.41616
      H1    14.20033  -15.23823   -0.72778
       H    14.02794  -14.11004   -5.56263
       O    13.85588  -15.00832   -5.90717
      H1    13.69892  -15.56096   -5.13653
       H    13.62624  -12.36076   -4.45607
       O    14.34830  -12.16137   -5.09612
      H1    15.17698  -12.24968   -4.62291
       H    18.11042  -11.32431   -4.83988
       O    17.37067  -11.18876   -4.25136
      H1    17.51661  -10.34052   -3.86771
       H    16.93088   -7.34068   -4.36043
       O    16.59994   -7.64191   -5.23148
      H1    15.77611   -8.06388   -5.05862
       H    14.29872  -10.18854   -2.78629
       O    13.36960   -9.93401   -2.92122
      H1    13.01206  -10.53381   -3.58168
       H    17.82098  -12.95475   -3.69143
       O    17.99769  -13.63626   -3.02056
      H1    18.11779  -13.12196   -2.21884
       H    18.45099  -15.10473   -3.99796
       O    18.30350  -15.68847   -4.75967
      H1    17.81581  -15.16927   -5.42203
       H    13.65972   -8.88696   -4.28788
       O    13.86619   -8.32045   -5.06383
      H1    13.74036   -8.94299   -5.78245

