60
frame 1 | Written by MDAnalysis XYZWriter (release 2.4.3)
       H     0.31422  -18.30074   -8.14799
       O    -0.20891  -19.06126   -8.45273
      H1    -1.10532  -18.78948   -8.32210
       H     0.71141   -9.84397   -9.31320
       O     0.68649  -10.30330  -10.16708
      H1     1.56844  -10.66704  -10.17174
       H     2.06965  -11.45950   -7.91402
       O     2.22929  -10.62928   -7.42064
      H1     2.95964  -10.80623   -6.81203
       H     3.56035  -10.72362   -9.32654
       O     3.11635  -11.31259   -9.96781
      H1     3.29771  -12.16095   -9.58587
       H    -0.37331  -14.92676  -13.94786
       O    -1.03049  -14.25454  -13.66815
      H1    -0.80890  -14.07076  -12.73110
       H    -1.05803  -16.63703   -9.82926
       O    -1.60932  -16.58472  -10.60847
      H1    -1.73724  -17.50645  -10.86066
       H     2.01866  -11.64012  -11.61302
       O     1.71343  -12.42244  -12.06282
      H1     0.86897  -12.60546  -11.63562
       H     1.25667  -16.77158   -6.49060
       O     1.28665  -17.07763   -7.40740
      H1     1.53446  -16.29768   -7.89254
       H     0.01517  -13.25153   -8.21878
       O     0.78165  -12.80108   -8.51813
      H1     0.44389  -11.96434   -8.93104
       H    -0.31447  -14.19448   -5.81829
       O    -1.28056  -14.09066   -5.81450
      H1    -1.43254  -13.32798   -5.22182
       H     1.88523  -15.63793  -12.71558
       O     2.17735  -15.15848  -11.93056
      H1     2.05720  -14.21106  -12.16550
       H    -0.49177  -14.27891  -10.45806
       O    -0.78101  -13.46216  -10.82317
      H1    -1.71127  -13.46586  -10.81139
       H     1.87558  -14.21761   -9.09457
       O     2.50290  -14.92648   -9.22787
      H1     2.32019  -15.25357  -10.12343
       H     4.94513  -13.31761   -8.21587
       O     4.84337  -13.58751   -9.16647
      H1     4.16697  -14.26010   -9.13678
       H     5.86098  -11.59915  -11.76029
       O     5.22224  -10.91402  -11.57463
      H1     4.62294  -11.35775  -10.94296
       H     1.94564  -15.83317   -5.04408
       O     1.13407  -15.44228   -5.34508
      H1     0.42726  -16.00554   -5.03859
       H     4.60883  -16.55156   -7.30609
       O     4.37261  -17.49028   -7.54715
      H1     4.66268  -17.88410   -6.72651
       H     5.57160  -14.48914  -10.64277
       O     6.19015  -15.17904  -10.92847
      H1     5.76300  -15.94154  -10.55614
       H     3.70010  -18.33945  -11.93914
       O     3.89586  -17.63357  -12.56064
      H1     4.41532  -16.99587  -12.05492
       H    -1.47501  -14.68169   -8.12987
       O    -0.63822  -15.14680   -8.31815
      H1    -0.40716  -15.61360   -7.51539

