60
frame 1 | Written by MDAnalysis XYZWriter (release 2.4.3)
       H     7.91655   -5.77063   14.04351
       O     8.77052   -5.70431   13.57725
      H1     8.49807   -5.57837   12.62785
       H     9.94575   -7.35355   13.30488
       O    10.49202   -8.10434   13.54532
      H1    11.38564   -7.73984   13.63238
       H    10.79113  -11.24618   11.87156
       O    11.10947  -11.63972   12.71223
      H1    10.33382  -11.65804   13.27092
       H     5.25015   -6.79739   12.83849
       O     5.73055   -6.53268   13.63870
      H1     5.94013   -7.37948   14.03492
       H    12.26564   -7.01923   11.82690
       O    11.95465   -7.47465   11.02286
      H1    11.17959   -7.99024   11.40504
       H     9.43388   -9.57827   10.35671
       O    10.33049   -9.94622   10.50193
      H1    10.25227  -10.73836    9.96979
       H     5.95571  -10.79842   11.32377
       O     6.76070  -10.37184   11.67024
      H1     6.46847  -10.13651   12.52372
       H     8.41751   -7.81135   17.52352
       O     8.58702   -7.48052   16.63601
      H1     8.99493   -8.23771   16.20823
       H    14.52787   -9.49423   13.56867
       O    14.72586   -8.52610   13.48213
      H1    15.61977   -8.41788   13.83278
       H    12.20243   -7.09375   16.76587
       O    12.85887   -7.56547   16.28138
      H1    12.95510   -7.10576   15.44295
       H     6.85909  -11.99972   16.55271
       O     6.79647  -11.11742   16.94732
      H1     6.73829  -10.51378   16.21132
       H    13.58198   -6.43280   13.13012
       O    12.70412   -6.41313   13.51062
      H1    12.48615   -5.47524   13.55816
       H     7.95205   -5.89149   15.88279
       O     7.40889   -5.10863   15.80793
      H1     8.10509   -4.44563   15.79696
       H    11.52073  -10.16523   16.50207
       O    12.46406  -10.02922   16.68001
      H1    12.69668   -9.14700   16.36318
       H     9.48238   -4.46053   14.80626
       O     9.84982   -3.94331   15.53574
      H1    10.62818   -3.54631   15.14589
       H     8.59369  -12.65688   14.58632
       O     9.39752  -12.22045   14.85421
      H1     9.65928  -12.69803   15.67037
       H    10.11882   -9.04608   14.88718
       O     9.94071   -9.57648   15.67839
      H1     9.70269  -10.43517   15.33077
       H    14.90562  -11.61579   17.47093
       O    14.19322  -12.17279   17.13805
      H1    13.52834  -11.55806   16.80504
       H    10.04288   -6.54891   17.27901
       O    10.92262   -6.12551   17.29479
      H1    10.83446   -5.36442   16.68720
       H    13.29732  -11.98213   14.20953
       O    13.46427  -11.11679   13.80936
      H1    12.62698  -11.05669   13.33172

