60
frame 1 | Written by MDAnalysis XYZWriter (release 2.4.3)
       H    -0.63882  -18.90828    1.67048
       O    -1.55249  -18.65347    1.47396
      H1    -1.45044  -17.82796    0.95349
       H     0.97549  -14.67770   -0.48151
       O     0.43434  -14.17076    0.11852
      H1     0.39466  -13.31475   -0.30362
       H     4.01826  -16.58631    4.79493
       O     3.96562  -16.47524    3.81663
      H1     4.66057  -17.10205    3.54117
       H     0.65545  -15.27396    5.94790
       O     1.05627  -15.93917    6.50529
      H1     1.42770  -16.57532    5.88729
       H    -1.85089  -16.73477    2.85966
       O    -1.51890  -16.35220    3.69436
      H1    -2.18081  -15.67852    3.88503
       H     1.64102  -19.11462    6.79788
       O     2.38686  -18.56997    6.42760
      H1     2.87352  -18.24793    7.21835
       H     0.03145  -17.09655    3.65940
       O     0.86168  -17.59114    3.64049
      H1     0.50581  -18.44244    3.90135
       H    -2.49371  -14.50300    2.04863
       O    -2.60546  -14.88470    1.17677
      H1    -3.27840  -15.56981    1.34160
       H     2.51045  -14.78633    2.62777
       O     2.18220  -13.88151    2.63747
      H1     1.49740  -13.90165    1.96955
       H    -2.02721  -15.85632   -2.01867
       O    -1.93335  -15.48709   -2.90976
      H1    -2.76915  -15.70161   -3.34830
       H    -0.78622  -15.76147   -0.08393
       O    -0.86904  -16.67977   -0.33783
      H1    -0.03770  -16.87330   -0.81141
       H     3.11156  -16.67082    2.41328
       O     2.64051  -16.55434    1.58539
      H1     1.78947  -16.92076    1.81268
       H     4.34808  -16.89985    0.41384
       O     4.71922  -16.15591   -0.03091
      H1     5.16213  -16.57714   -0.74922
       H    -4.95456  -18.58800    6.17709
       O    -4.19261  -18.60777    6.75591
      H1    -3.49071  -18.18089    6.25677
       H    -0.89500  -16.85274    6.67271
       O    -1.70306  -17.29166    6.35659
      H1    -1.70537  -17.13450    5.40664
       H     2.62120  -14.26474   -1.11240
       O     2.60477  -15.20086   -1.48143
      H1     3.14059  -15.67169   -0.82738
       H     6.03678  -19.11769    2.79211
       O     5.22969  -18.60784    2.53703
      H1     4.49666  -18.99284    3.02553
       H     1.98315  -18.05954   -2.82874
       O     1.40910  -18.21101   -2.07230
      H1     1.75470  -19.01335   -1.66177
       H    -4.20218  -15.02182   -0.58196
       O    -4.50751  -15.80977   -0.97883
      H1    -5.44010  -15.78362   -0.80360
       H    -4.40615  -17.57587    1.38080
       O    -4.02331  -17.06548    2.11970
      H1    -4.63406  -17.17045    2.84475

