60
frame 1 | Written by MDAnalysis XYZWriter (release 2.4.3)
       H     2.12483    6.81791   -5.83424
       O     1.77885    6.76665   -6.73172
      H1     2.28164    6.05353   -7.16884
       H     5.25594    9.57168   -1.87856
       O     4.67928    8.81065   -1.93081
      H1     5.21464    8.04712   -1.66752
       H     0.35571   12.59080   -3.38647
       O    -0.23157   11.86862   -3.08966
      H1    -0.63608   12.25734   -2.31784
       H     1.56587    7.94169   -4.14991
       O     2.47659    7.68549   -4.25130
      H1     2.55759    7.05263   -3.55793
       H     6.65474   10.88850   -1.69831
       O     6.53310   10.61136   -2.61315
      H1     7.30605   10.04796   -2.77835
       H     1.97743   12.95092   -2.07508
       O     2.71289   12.56929   -1.55683
      H1     3.46244   12.78414   -2.08954
       H     7.98845   10.69614   -6.02546
       O     8.12891    9.81203   -6.38251
      H1     7.24621    9.46010   -6.21052
       H     5.09192   13.92882   -3.92706
       O     4.80020   13.17680   -3.39825
      H1     4.53193   12.53218   -4.07499
       H     3.43046    5.70422   -1.88284
       O     2.77437    5.55081   -2.56533
      H1     2.83273    4.59483   -2.70911
       H     3.07806   14.77028   -5.98680
       O     2.76761   14.02933   -5.46357
      H1     2.35613   14.42810   -4.67313
       H     0.13267   10.66237   -5.78407
       O    -0.71783   10.97232   -5.52942
      H1    -0.60287   11.14464   -4.57653
       H     4.71181    9.31126   -5.89894
       O     5.43670    9.00564   -6.46476
      H1     4.96981    8.41529   -7.04376
       H     2.06590    8.73481    0.70934
       O     2.37846    9.54235    0.29693
      H1     3.16568    9.26363   -0.20664
       H     3.30751   10.81437   -4.59177
       O     4.13333   10.36629   -4.38819
      H1     3.91835    9.83985   -3.59665
       H     2.36083   12.23117   -6.16872
       O     1.93135   11.38410   -6.21009
      H1     2.40800   10.99822   -6.93091
       H     6.09392    8.20157   -5.00860
       O     6.30414    7.81143   -4.16543
      H1     5.82824    8.31645   -3.51368
       H     8.25587   12.36186   -4.30757
       O     7.42723   12.02851   -4.66833
      H1     6.98858   11.59567   -3.91394
       H    -0.31483    7.21776   -4.68013
       O    -0.16059    8.16480   -4.70092
      H1    -0.53820    8.45108   -3.84980
       H     5.14556   11.82635   -6.82214
       O     4.89760   11.30755   -7.60729
      H1     5.07779   10.41627   -7.31380
       H     6.54060   10.48783    0.69914
       O     6.25393   11.24969    0.17939
      H1     6.76664   12.01627    0.47997

