60
frame 0 | Written by MDAnalysis XYZWriter (release 2.4.3)
       H    13.00046   -5.23809   12.87754
       O    13.37294   -5.33655   11.98648
      H1    13.12658   -6.23409   11.68312
       H    14.80457   -5.69778   10.63591
       O    15.68054   -5.41390   10.28819
      H1    16.20043   -6.21002   10.37400
       H    14.03868   -8.47493    6.92031
       O    14.17211   -8.67137    7.84061
      H1    13.91879   -7.86995    8.30227
       H    10.48940  -12.77553   12.04853
       O    10.94956  -13.05121   12.85899
      H1    10.42101  -12.70284   13.56899
       H    10.63625   -6.52861   10.34050
       O    10.62787   -6.76078   11.30967
      H1     9.74057   -7.12854   11.47682
       H    14.41328   -8.30149   11.56204
       O    14.11989   -7.66806   10.91932
      H1    13.41194   -8.12309   10.43831
       H    14.60147  -11.22163   10.45599
       O    14.88620  -11.60587    9.61172
      H1    14.83335  -10.88483    8.99551
       H     9.22089   -9.20050   13.10869
       O     9.26231   -9.31685   12.18716
      H1     8.85094   -8.51089   11.82528
       H    10.34321  -12.10047    9.75145
       O    10.97791  -11.72361   10.37742
      H1    11.75060  -12.27795   10.27129
       H    11.75728  -10.78224    8.51021
       O    11.47065  -10.91297    7.62336
      H1    12.28859  -11.07936    7.12942
       H    15.55399   -9.08547   13.40052
       O    15.09699   -8.22613   13.53051
      H1    15.74481   -7.65296   13.98528
       H    13.25076  -10.03885   11.62033
       O    14.18613  -10.32701   11.68481
      H1    14.19616  -11.04399   12.30888
       H    15.09641  -12.68705   13.29036
       O    15.90738  -12.95198   12.86872
      H1    16.25568  -12.07071   12.60294
       H    17.84768  -10.26635   12.35225
       O    17.01661  -10.44338   12.81453
      H1    17.35294  -10.85349   13.65091
       H    13.31063   -7.41663   13.94590
       O    12.73348   -6.95226   14.58050
      H1    13.37293   -6.76977   15.30345
       H    13.86487  -10.72169   16.62029
       O    13.30682  -11.43797   16.30000
      H1    12.42359  -11.03546   16.23728
       H    11.11627   -8.86574   11.57037
       O    11.60160   -9.39884   10.94709
      H1    11.08046  -10.19894   10.92273
       H    13.74705  -13.06700   10.13564
       O    12.93064  -13.51945   10.37697
      H1    12.68550  -14.02008    9.58923
       H    13.50724  -11.96638   14.55633
       O    13.58744  -12.26316   13.64722
      H1    12.73394  -12.60884   13.39035
       H    14.77372   -9.18747   15.24494
       O    14.94433   -9.20314   16.19796
      H1    14.43937   -8.45885   16.51301

