60
frame 1 | Written by MDAnalysis XYZWriter (release 2.4.3)
       H     3.08874   -5.90142   16.93198
       O     3.30621   -6.18697   16.04048
      H1     3.65135   -5.37351   15.64034
       H     1.33696   -7.73095   13.80555
       O     1.95479   -6.99452   13.75488
      H1     2.22542   -6.92849   14.66550
       H     7.10840   -3.35148   13.76753
       O     6.84926   -2.61702   14.31464
      H1     6.11755   -3.06901   14.78245
       H     6.38250   -1.21390   17.16217
       O     6.54213   -0.63735   16.41145
      H1     6.81727   -1.20663   15.67467
       H     4.81506   -0.06641   16.36451
       O     3.87749   -0.06765   16.10583
      H1     3.41018    0.15175   16.95395
       H     2.25560    0.12499   18.64381
       O     2.85989    0.90413   18.65073
      H1     3.62607    0.56366   19.10231
       H     3.59003   -2.01541   11.17612
       O     3.84103   -1.09226   11.25227
      H1     3.06181   -0.67819   11.64561
       H     1.50182   -5.10477   14.07991
       O     1.44307   -4.12649   14.17000
      H1     1.94401   -3.89422   14.97709
       H     5.12583   -4.96964   14.44951
       O     4.58244   -4.16683   14.46888
      H1     4.36448   -4.01394   13.55048
       H     0.42749    1.28919   15.90131
       O     1.16774    0.84046   16.22034
      H1     1.73269    1.48598   16.66483
       H     4.50654    0.11534   13.31649
       O     5.39678    0.45056   13.37319
      H1     5.55043    0.50884   14.31664
       H    -0.00993   -4.91763   16.68900
       O    -0.03107   -3.97601   16.46535
      H1     0.13636   -3.99810   15.50656
       H     5.32480   -3.32354   18.01671
       O     4.86427   -2.44884   17.99602
      H1     4.04849   -2.67825   17.57364
       H     6.68431   -5.07760   17.51334
       O     6.47877   -4.94516   18.44717
      H1     5.79644   -5.57412   18.65294
       H     2.41877   -3.82996   12.49770
       O     3.10819   -3.73476   11.79615
      H1     2.60590   -3.79768   10.96824
       H     1.14055   -1.24399   13.11483
       O     0.25232   -1.58593   13.08206
      H1     0.35127   -2.49109   13.36253
       H    -0.48447   -0.04562   15.54410
       O    -1.27896   -0.57860   15.46518
      H1    -1.14444   -1.08103   14.62753
       H    -2.60171   -1.73721   16.87709
       O    -2.33559   -2.59705   17.21671
      H1    -1.43145   -2.67316   16.90657
       H     1.54772   -2.36322   16.80531
       O     2.34795   -2.45988   16.30384
      H1     2.73042   -1.56983   16.24259
       H     2.61290    0.09907   14.59777
       O     2.43868    0.00433   13.63704
      H1     2.04120    0.86151   13.41641

