60
frame 1 | Written by MDAnalysis XYZWriter (release 2.4.3)
       H     3.52527   14.00673    7.99786
       O     2.70926   13.67666    7.61957
      H1     2.11424   13.53535    8.36037
       H     3.74564    8.61705   11.41851
       O     3.95955    9.32881   10.82988
      H1     3.13325    9.48401   10.36211
       H     1.00301   14.26757    9.57501
       O     0.77761   13.32627    9.52738
      H1    -0.14219   13.33786    9.27148
       H    -0.89871    9.51582    6.93211
       O    -0.44090   10.26299    7.33961
      H1     0.23039   10.50236    6.69108
       H     1.31547   12.27050    5.61844
       O     1.83729   11.52740    5.27775
      H1     2.12892   11.14171    6.12488
       H     3.55677    6.69591   12.74422
       O     3.19016    7.08933   11.95780
      H1     3.29322    6.39053   11.32057
       H     2.51063   12.03687   13.49691
       O     2.65985   11.93535   14.44517
      H1     2.16199   12.70456   14.77173
       H    -0.45234    7.84752    8.11830
       O    -0.10466    7.52844    8.94937
      H1     0.72851    8.00064    9.05205
       H    -0.91156    7.65712    5.92674
       O    -1.54161    7.91386    6.61946
      H1    -1.90390    7.03715    6.83541
       H     2.81119    7.07723    7.90628
       O     2.88713    7.79475    8.52892
      H1     3.75681    7.61965    8.84895
       H    -0.26370    7.67677   13.20952
       O     0.50295    7.11709   13.35444
      H1     1.04174    7.30231   12.55232
       H    -1.64735    8.04915    9.77632
       O    -2.64495    8.04548    9.76074
      H1    -2.92396    8.51741   10.56104
       H    -4.22427    8.58059   12.08642
       O    -3.71812    9.39955   11.92229
      H1    -4.33180    9.98644   11.45125
       H     2.02343   11.19456   11.46539
       O     2.18580   12.12927   11.63025
      H1     1.39991   12.59083   11.30572
       H     1.53202   10.31935    9.00414
       O     1.26947    9.95490    9.88977
      H1     0.40702   10.36719   10.08616
       H    -3.03266   12.11528    6.73900
       O    -2.44701   12.58868    6.15326
      H1    -1.57267   12.55235    6.59116
       H     4.66738   11.09824   10.80270
       O     4.83994   12.01842   11.07423
      H1     3.96321   12.29298   11.23966
       H    -1.24045   11.30096    8.44625
       O    -1.50296   11.99544    9.09443
      H1    -2.45298   12.03936    9.01340
       H    -1.29116   11.13866   10.79825
       O    -0.98964   10.69851   11.61769
      H1    -1.41937   11.22446   12.26300
       H     2.87206    9.37072    7.49899
       O     2.88011   10.32766    7.52178
      H1     3.78080   10.55839    7.33210

