60
frame 1 | Written by MDAnalysis XYZWriter (release 2.4.3)
       H    -7.51989    9.83399   13.82864
       O    -6.92939   10.13919   14.55120
      H1    -6.78565   11.09316   14.40287
       H    -1.72578   10.83844   17.98888
       O    -2.43421   11.34272   18.40746
      H1    -3.24298   10.83830   18.20938
       H    -4.44793    7.22482   19.19524
       O    -5.12749    7.56770   18.64281
      H1    -4.79168    7.46341   17.77618
       H    -3.11924    6.11642   16.41217
       O    -3.34157    7.02829   16.63270
      H1    -2.85621    7.53856   15.97261
       H    -7.46378   13.44577   13.73161
       O    -6.85212   12.77048   13.38652
      H1    -7.05311   12.65650   12.44201
       H    -0.26370    7.67677   13.20952
       O     0.50295    7.11709   13.35444
      H1     1.04174    7.30231   12.55232
       H    -1.81998    9.19483   14.87820
       O    -1.40255    8.35617   14.97539
      H1    -0.46778    8.55709   15.12333
       H    -1.64735    8.04915    9.77632
       O    -2.64495    8.04548    9.76074
      H1    -2.92396    8.51741   10.56104
       H     1.38257   10.76061   15.32179
       O     0.88225   10.17747   15.91430
      H1     1.23070   10.42751   16.77028
       H    -1.55059   12.96095   17.04611
       O    -1.23847   13.86247   16.86373
      H1    -1.10600   13.83824   15.90627
       H    -3.83110    6.41057   12.24950
       O    -4.74320    6.76812   12.18138
      H1    -5.01039    6.99489   13.08168
       H    -2.43618   14.94821   11.35047
       O    -1.77291   15.12663   12.04226
      H1    -1.68032   14.24205   12.41013
       H    -3.85887   10.55245   15.25542
       O    -3.10027   10.44243   14.65365
      H1    -3.46325   10.35342   13.75653
       H    -4.22427    8.58059   12.08642
       O    -3.71812    9.39955   11.92229
      H1    -4.33180    9.98644   11.45125
       H    -2.22043   11.74460   13.93260
       O    -1.92051   12.57482   13.55939
      H1    -2.75575   13.08646   13.52991
       H    -5.49567    8.14860   14.74138
       O    -5.25383    7.20844   14.69136
      H1    -4.58416    7.08996   15.35585
       H    -5.26683   11.44508   17.15134
       O    -4.86098   10.60509   16.90894
      H1    -5.60100    9.98098   16.86799
       H    -0.61113    7.26979   17.21004
       O    -0.52751    7.55953   18.12493
      H1    -1.04357    6.88530   18.58792
       H    -1.29116   11.13866   10.79825
       O    -0.98964   10.69851   11.61769
      H1    -1.41937   11.22446   12.26300
       H    -5.15973   13.57107   13.85252
       O    -4.27577   13.94675   13.77876
      H1    -4.16104   14.52174   14.56310

