60
frame 1 | Written by MDAnalysis XYZWriter (release 2.4.3)
       H     2.69303  -10.17466    2.33786
       O     1.82997   -9.79577    2.13559
      H1     1.81889  -10.04857    1.21433
       H     3.55879  -13.15561    1.52762
       O     3.99047  -12.68532    0.79943
      H1     4.70909  -12.22953    1.24535
       H    -0.19721  -11.90120   -2.17821
       O    -0.38796  -11.67640   -1.25899
      H1    -1.06521  -10.96682   -1.35084
       H     5.60521   -7.08749   -2.43201
       O     4.72852   -7.40093   -2.23315
      H1     4.77344   -7.62939   -1.28432
       H     0.97549  -14.67770   -0.48151
       O     0.43434  -14.17076    0.11852
      H1     0.39466  -13.31475   -0.30362
       H     2.08993   -6.95460    3.62334
       O     1.57998   -7.66819    4.00747
      H1     1.61279   -8.32069    3.28414
       H     1.31087   -5.23247   -1.73170
       O     1.60012   -6.12157   -1.84919
      H1     1.68712   -6.45397   -0.93300
       H     0.96766  -10.56334    3.57349
       O     0.32435  -10.87604    4.19650
      H1     0.69876  -10.64361    5.05335
       H    -3.18524   -9.86058   -1.18439
       O    -2.32587   -9.50794   -1.41775
      H1    -2.08895   -8.87825   -0.74368
       H     2.51045  -14.78633    2.62777
       O     2.18220  -13.88151    2.63747
      H1     1.49740  -13.90165    1.96955
       H     4.14728  -12.39706   -1.07355
       O     4.11195  -12.54195   -2.03297
      H1     3.80085  -11.73522   -2.44112
       H     3.82961   -9.12586   -2.54065
       O     3.29449   -9.90432   -2.83631
      H1     2.43431   -9.52885   -3.08238
       H     0.90932  -10.42817   -1.07691
       O     1.61826  -10.03217   -0.55443
      H1     2.20627   -9.77698   -1.27102
       H     1.26180   -8.08703    0.04048
       O     1.51533   -7.38946    0.66676
      H1     0.67081   -7.09296    0.99208
       H    -1.47186   -9.67014    2.06368
       O    -1.69113   -9.46937    3.00117
      H1    -0.94639   -9.83596    3.54430
       H    -2.63654  -13.02544    0.51835
       O    -2.32022  -12.11008    0.59719
      H1    -1.43024  -12.19934    0.23845
       H     4.60017  -11.64461    3.63661
       O     4.02246  -10.99069    3.26305
      H1     3.89950  -10.36431    4.00199
       H     4.75229   -7.47828    0.71177
       O     4.25678   -8.24854    0.38314
      H1     3.29912   -7.98881    0.45567
       H     5.30225  -10.13808    2.42331
       O     5.98277   -9.66478    1.94700
      H1     5.41633   -9.15715    1.34593
       H    -1.87313   -6.86282    0.85467
       O    -1.54196   -7.51786    0.21611
      H1    -1.86220   -7.17885   -0.62510

