60
frame 1 | Written by MDAnalysis XYZWriter (release 2.4.3)
       H     6.39058   15.93011    8.21426
       O     6.51137   16.84934    8.35004
      H1     7.44295   17.02423    8.06159
       H    11.37409   18.28820    9.02531
       O    11.00956   17.42055    8.80390
      H1    11.70813   16.95474    8.26728
       H     7.92578   12.98880    2.38909
       O     8.73629   12.76865    2.88905
      H1     8.71561   11.80162    2.97759
       H     4.76890   14.62625    5.30745
       O     5.53913   14.05964    5.54733
      H1     5.74311   13.46286    4.80917
       H     7.21233   18.29910    4.70825
       O     6.75354   17.49262    4.65134
      H1     5.91637   17.62415    5.17007
       H     5.87635   16.36546    1.82520
       O     6.74335   16.33308    2.27408
      H1     6.53181   16.73173    3.12672
       H     7.42911   17.42626    0.81232
       O     8.01157   17.93964    0.28629
      H1     8.84756   18.05710    0.77570
       H    11.71569   11.89128    5.19189
       O    11.85247   11.63481    4.28427
      H1    10.97706   11.37312    4.03966
       H     7.35971   14.28159    0.32555
       O     6.90247   13.96010    1.12534
      H1     6.80696   14.77074    1.62490
       H    10.42332   17.09923    2.65290
       O    10.37529   17.84486    2.02800
      H1    11.30301   18.14020    1.93482
       H     8.62978   18.81005    8.04718
       O     8.82788   17.96540    7.59017
      H1     9.59534   17.62585    8.09196
       H    12.78954   16.61088    6.54292
       O    13.00003   16.04619    7.31556
      H1    12.76274   15.19481    6.94544
       H     9.87861   16.40313    1.08442
       O     9.83942   15.57004    0.62201
      H1    10.53028   15.68863   -0.04733
       H    13.10912   18.57482    5.03933
       O    12.63418   17.75046    5.23350
      H1    11.73087   18.09987    5.17174
       H    11.86826   15.08984    3.52825
       O    12.49702   14.36296    3.56396
      H1    12.06679   13.65133    3.97628
       H    11.97772   12.62391    7.00424
       O    12.41748   13.36412    6.53939
      H1    13.34856   13.10831    6.42475
       H     7.49171   15.56380    5.55246
       O     8.30785   15.38932    6.03620
      H1     8.60058   16.27266    6.31977
       H     6.88654   13.04084    7.45335
       O     7.82086   13.02704    7.65183
      H1     8.11108   13.73362    7.03916
       H     9.86358   12.41541    1.32285
       O    10.36503   12.41965    0.48688
      H1    10.44295   13.35069    0.29202
       H     9.80866   14.91813    3.29489
       O    10.13318   15.67907    3.80504
      H1     9.60903   15.63028    4.59912

