60
frame 1 | Written by MDAnalysis XYZWriter (release 2.4.3)
       H     2.55154  -13.82314  -15.65533
       O     2.11341  -14.58001  -16.07728
      H1     2.04694  -14.37490  -17.02099
       H     1.27245  -15.77005  -15.07293
       O     0.96345  -16.33254  -14.33975
      H1     0.21819  -16.83681  -14.73275
       H     1.75013  -18.55420  -15.98958
       O     1.53699  -18.50327  -16.94526
      H1     0.56912  -18.65714  -16.99074
       H    -0.37331  -14.92676  -13.94786
       O    -1.03049  -14.25454  -13.66815
      H1    -0.80890  -14.07076  -12.73110
       H    -1.05803  -16.63703   -9.82926
       O    -1.60932  -16.58472  -10.60847
      H1    -1.73724  -17.50645  -10.86066
       H     1.85297  -18.00504  -14.25330
       O     2.36995  -18.79317  -14.51409
      H1     3.23381  -18.62363  -14.12279
       H     2.01866  -11.64012  -11.61302
       O     1.71343  -12.42244  -12.06282
      H1     0.86897  -12.60546  -11.63562
       H     5.55262  -14.85886  -14.36561
       O     4.79314  -15.19189  -13.85240
      H1     4.89807  -16.14350  -13.77986
       H    -2.51316  -15.52160  -13.46770
       O    -3.46724  -15.62308  -13.66501
      H1    -3.64824  -16.51343  -13.47423
       H    -0.12264  -12.79950  -16.35806
       O    -0.99929  -13.03746  -16.05381
      H1    -0.86671  -13.38471  -15.19664
       H     1.88523  -15.63793  -12.71558
       O     2.17735  -15.15848  -11.93056
      H1     2.05720  -14.21106  -12.16550
       H    -0.49177  -14.27891  -10.45806
       O    -0.78101  -13.46216  -10.82317
      H1    -1.71127  -13.46586  -10.81139
       H     1.87558  -14.21761   -9.09457
       O     2.50290  -14.92648   -9.22787
      H1     2.32019  -15.25357  -10.12343
       H     4.94513  -13.31761   -8.21587
       O     4.84337  -13.58751   -9.16647
      H1     4.16697  -14.26010   -9.13678
       H     2.46791  -10.21776  -14.38590
       O     1.57502  -10.53776  -14.19155
      H1     1.72739  -11.21675  -13.47485
       H     4.51334  -16.17609  -17.94559
       O     4.56464  -16.63443  -17.09539
      H1     3.76440  -16.34136  -16.63936
       H     5.57160  -14.48914  -10.64277
       O     6.19015  -15.17904  -10.92847
      H1     5.76300  -15.94154  -10.55614
       H     3.74837  -13.07146  -14.16272
       O     3.80296  -12.84837  -15.10757
      H1     4.66252  -13.21583  -15.38226
       H    -1.32654  -17.78704  -16.06072
       O    -0.96054  -18.09802  -15.24311
      H1    -0.91780  -19.04705  -15.37259
       H     3.70010  -18.33945  -11.93914
       O     3.89586  -17.63357  -12.56064
      H1     4.41532  -16.99587  -12.05492

