60
frame 1 | Written by MDAnalysis XYZWriter (release 2.4.3)
       H    11.42863  -14.57634   -9.06798
       O    11.00123  -13.74753   -9.23472
      H1    11.72356  -13.19488   -9.58373
       H    18.20076  -17.59588   -4.39862
       O    18.05892  -18.55922   -4.47852
      H1    18.95328  -18.91545   -4.34151
       H    17.39655  -14.56231   -8.17268
       O    17.36902  -13.91395   -7.45787
      H1    16.67454  -13.30460   -7.72519
       H    13.85645  -11.11977   -6.47052
       O    13.74502  -10.37467   -7.10502
      H1    13.19779  -10.66600   -7.81341
       H    11.23792  -13.83593   -7.16691
       O    11.11563  -14.15111   -6.28135
      H1    11.91649  -14.64230   -6.03456
       H    11.84185  -18.39831  -10.60122
       O    11.14835  -17.86802  -10.97725
      H1    11.37862  -17.72706  -11.90085
       H    12.55233  -17.20808   -3.86169
       O    13.22724  -16.53144   -3.65664
      H1    14.01523  -17.05945   -3.56198
       H    17.76577  -16.44673  -10.18967
       O    17.30847  -16.36378   -9.35803
      H1    17.99183  -16.54920   -8.68149
       H    14.12929  -18.51557   -7.70663
       O    13.53537  -19.27226   -7.56147
      H1    12.74769  -18.92105   -7.13778
       H    14.92293  -16.68833  -11.67943
       O    14.98437  -17.30077  -12.43645
      H1    15.09584  -18.15791  -12.04656
       H    12.25812  -16.73882  -10.01782
       O    12.46547  -16.04636   -9.40345
      H1    13.36691  -15.79624   -9.66644
       H    17.21579  -13.60734  -11.83275
       O    17.61173  -14.17642  -11.14603
      H1    18.19859  -14.77527  -11.57654
       H    16.78656  -17.45633  -12.24704
       O    17.74665  -17.53283  -12.27519
      H1    17.88793  -18.39168  -11.81955
       H    14.40965  -14.36222  -11.19221
       O    14.76183  -15.15201  -10.79504
      H1    15.62401  -14.91600  -10.47215
       H    14.02794  -14.11004   -5.56263
       O    13.85588  -15.00832   -5.90717
      H1    13.69892  -15.56096   -5.13653
       H    13.62624  -12.36076   -4.45607
       O    14.34830  -12.16137   -5.09612
      H1    15.17698  -12.24968   -4.62291
       H    11.53128  -17.09750   -7.85495
       O    11.04654  -17.48477   -7.11821
      H1    10.22632  -17.85439   -7.54324
       H    16.04856  -17.66040   -4.93026
       O    15.83518  -16.73553   -4.70726
      H1    16.67966  -16.32335   -4.53064
       H    15.84911  -16.84392   -8.64647
       O    15.11783  -16.98399   -8.04544
      H1    14.84056  -16.10493   -7.74485
       H    18.45099  -15.10473   -3.99796
       O    18.30350  -15.68847   -4.75967
      H1    17.81581  -15.16927   -5.42203

