60
frame 1 | Written by MDAnalysis XYZWriter (release 2.4.3)
       H    12.67032  -12.90252  -12.25370
       O    13.51851  -12.58273  -11.97248
      H1    14.11474  -12.72538  -12.72413
       H    17.39655  -14.56231   -8.17268
       O    17.36902  -13.91395   -7.45787
      H1    16.67454  -13.30460   -7.72519
       H    13.85645  -11.11977   -6.47052
       O    13.74502  -10.37467   -7.10502
      H1    13.19779  -10.66600   -7.81341
       H    17.72048  -12.09129  -10.30655
       O    18.04852  -11.28268   -9.84592
      H1    17.47795  -11.17628   -9.06648
       H    12.71787  -11.43384  -10.50517
       O    12.33212  -11.08975   -9.67322
      H1    11.75517  -10.40187   -9.95941
       H    15.38443  -10.24382   -7.53827
       O    16.19821  -10.10969   -8.02102
      H1    16.84936   -9.79844   -7.36158
       H    18.37110   -7.63243  -12.36668
       O    17.69315   -7.19908  -12.86997
      H1    17.70135   -6.31990  -12.46421
       H    17.76577  -16.44673  -10.18967
       O    17.30847  -16.36378   -9.35803
      H1    17.99183  -16.54920   -8.68149
       H    15.08328  -12.00391  -15.05868
       O    14.88339  -12.91584  -14.73006
      H1    15.58300  -13.47040  -15.10505
       H    19.00551   -8.88876   -7.05986
       O    18.38242   -9.49783   -6.67551
      H1    17.95854   -8.94612   -6.02668
       H    17.15718  -11.28596  -12.40592
       O    16.72248  -12.11531  -12.66041
      H1    16.31892  -11.92637  -13.50007
       H    17.30848   -9.13441  -14.69178
       O    17.58318   -9.26604  -15.62037
      H1    17.80552   -8.37466  -15.91002
       H    17.21579  -13.60734  -11.83275
       O    17.61173  -14.17642  -11.14603
      H1    18.19859  -14.77527  -11.57654
       H    14.40965  -14.36222  -11.19221
       O    14.76183  -15.15201  -10.79504
      H1    15.62401  -14.91600  -10.47215
       H    14.90750   -9.28928  -15.04804
       O    14.74539   -9.84264  -14.28900
      H1    14.79299   -9.22582  -13.52425
       H    18.11042  -11.32431   -4.83988
       O    17.37067  -11.18876   -4.25136
      H1    17.51661  -10.34052   -3.86771
       H    14.91038   -7.91792  -11.35177
       O    15.09611   -8.02149  -12.29560
      H1    16.02473   -7.75798  -12.39453
       H    15.84911  -16.84392   -8.64647
       O    15.11783  -16.98399   -8.04544
      H1    14.84056  -16.10493   -7.74485
       H    15.61810   -7.03741   -8.95523
       O    15.69698   -7.74301   -9.62744
      H1    15.97323   -8.57566   -9.16342
       H    18.83148  -10.65325  -12.68403
       O    18.35577   -9.90807  -12.30913
      H1    18.33719  -10.03159  -11.35993

