60
frame 1 | Written by MDAnalysis XYZWriter (release 2.4.3)
       H   -16.06131  -18.42582    2.70104
       O   -15.89022  -19.34879    2.87640
      H1   -15.69217  -19.38595    3.81337
       H   -14.60359  -13.67254    2.42303
       O   -15.36606  -13.12954    2.26981
      H1   -15.34036  -12.75904    1.39429
       H   -14.06062  -16.39604    6.00976
       O   -13.14483  -16.10862    5.80435
      H1   -13.19131  -15.40849    5.14152
       H   -11.56487  -16.49793   -3.03213
       O   -10.61734  -16.23093   -3.06133
      H1   -10.66803  -15.29858   -2.86684
       H   -15.14065  -17.70035   -0.73061
       O   -15.75854  -18.41865   -0.55509
      H1   -15.40928  -19.14983   -1.11311
       H   -12.92330  -16.10167    0.45467
       O   -13.61353  -16.64938    0.08893
      H1   -13.61896  -17.34705    0.73977
       H   -12.40093  -14.36655    3.39531
       O   -13.33552  -14.64278    3.34821
      H1   -13.25049  -15.59425    3.18593
       H   -12.11847  -11.83521    1.23421
       O   -12.77754  -11.22648    0.88535
      H1   -13.24830  -10.95091    1.69473
       H    -9.79703  -12.40218    1.57518
       O   -10.59547  -12.92843    1.49536
      H1   -10.39029  -13.40659    0.69683
       H   -12.87834  -13.14672    0.36432
       O   -12.92331  -14.01383   -0.07677
      H1   -13.87456  -14.10561   -0.22384
       H   -11.94003  -18.08137    2.89826
       O   -12.72686  -18.41772    2.45581
      H1   -13.34642  -18.67027    3.13571
       H   -10.24514  -14.81446    4.07281
       O   -10.66057  -14.82729    3.19889
      H1   -10.40691  -14.00100    2.78588
       H   -11.03225  -18.05434    4.86313
       O   -10.64734  -17.76066    4.04208
      H1   -10.27375  -16.89825    4.26537
       H   -11.20064  -12.96876   -3.09960
       O   -11.20200  -13.61751   -2.38519
      H1   -12.10662  -13.62250   -2.09085
       H   -16.19131  -16.73541   -2.91354
       O   -15.49760  -16.13140   -3.29159
      H1   -15.54120  -15.37322   -2.68488
       H   -13.17784  -17.12593   -1.51557
       O   -13.19219  -17.35605   -2.44913
      H1   -13.91872  -16.80156   -2.75334
       H   -15.54277  -16.27175    1.31671
       O   -15.83388  -16.67048    2.12532
      H1   -16.73711  -16.31074    2.28912
       H   -15.96539  -13.25871   -1.54411
       O   -15.72989  -14.13658   -1.18955
      H1   -16.40592  -14.29871   -0.51209
       H    -9.89146  -16.74019    0.64046
       O    -9.78560  -15.81221    0.82546
      H1   -10.01689  -15.65363    1.74158
       H    -9.25996  -18.34489   -0.93366
       O   -10.12099  -17.95900   -0.67216
      H1   -10.39195  -17.55358   -1.49634

