60
frame 0 | Written by MDAnalysis XYZWriter (release 2.4.3)
       H    -3.15980   18.55548    2.75183
       O    -2.87559   17.64645    2.83399
      H1    -3.67967   17.22293    3.13000
       H    -3.88993   17.86291    7.94892
       O    -4.45245   17.49761    8.65082
      H1    -4.76222   18.31488    9.06086
       H    -5.38557   18.23433   -1.54006
       O    -5.61485   18.21160   -0.60391
      H1    -4.92717   17.69849   -0.17633
       H     0.87221   18.61188    6.30584
       O     1.71593   19.04211    6.23408
      H1     2.06464   18.95991    7.14255
       H    -2.55223   18.08161    9.23363
       O    -1.89522   18.71535    9.60048
      H1    -1.35660   18.84934    8.82442
       H    -3.64192   13.52213    1.66954
       O    -3.33945   14.26895    1.15805
      H1    -3.46938   13.93424    0.26628
       H    -5.26040   16.17564    6.97558
       O    -5.12570   15.58596    6.23472
      H1    -5.69156   14.83880    6.51736
       H    -0.47625   15.93711    9.36774
       O     0.02518   15.41025    8.69728
      H1    -0.66914   14.79770    8.36066
       H    -5.35969   16.33962    4.71295
       O    -5.24084   16.89006    3.92466
      H1    -6.13008   16.93812    3.56418
       H    -2.18081   13.18858    3.84206
       O    -2.65225   14.01720    3.86923
      H1    -2.88533   14.22276    2.94626
       H    -1.49003   13.87827    1.02800
       O    -0.69597   13.33522    1.04787
      H1    -0.01083   14.03139    1.12650
       H    -0.71739   19.34122    4.05077
       O    -0.73833   18.43320    4.39687
      H1    -1.57190   18.06815    4.07416
       H    -3.54449   19.04004    6.03953
       O    -3.46707   18.08368    6.12908
      H1    -3.72511   17.75957    5.24956
       H    -2.63972   14.21928    7.36015
       O    -1.74070   13.92642    7.21059
      H1    -1.36060   14.55625    6.58154
       H    -0.46385   16.33491    0.15050
       O    -1.44688   16.33689    0.05626
      H1    -1.76130   16.44458    0.93444
       H    -1.26245   14.83501    4.63752
       O    -0.43987   15.08048    5.06576
      H1     0.05234   15.37800    4.27505
       H     1.96496   17.48633    0.48620
       O     1.25568   16.85730    0.52287
      H1     1.72132   15.98079    0.62375
       H     0.75058   16.63013    2.27370
       O     0.94144   16.59792    3.21465
      H1     0.33251   17.20853    3.64036
       H     2.76578   18.01070    5.23660
       O     3.06519   17.43128    4.51612
      H1     2.31792   17.35376    3.92889
       H    -0.59541   16.89518    7.37437
       O    -0.67447   17.80543    7.13046
      H1    -0.90924   17.77422    6.17774

