60
frame 1 | Written by MDAnalysis XYZWriter (release 2.4.3)
       H   -10.44899   -5.34197    1.07515
       O   -10.94818   -5.03765    1.81514
      H1   -10.31999   -5.24325    2.53992
       H   -13.77779   -5.03027    0.81550
       O   -14.08315   -4.17480    0.52933
      H1   -14.52048   -3.81953    1.34465
       H   -16.61254   -8.77674    0.03571
       O   -16.25260   -9.05917    0.87858
      H1   -15.95808   -9.94723    0.67725
       H   -12.56985   -5.15055    2.71952
       O   -13.09032   -4.97958    3.54128
      H1   -14.02391   -5.03485    3.27145
       H   -12.11847  -11.83521    1.23421
       O   -12.77754  -11.22648    0.88535
      H1   -13.24830  -10.95091    1.69473
       H   -10.93758   -6.91637    8.05214
       O   -10.46639   -6.69997    7.23640
      H1   -11.10300   -6.92918    6.54579
       H   -14.50937   -7.30632    0.27934
       O   -13.80074   -6.80481    0.65583
      H1   -13.82110   -7.10512    1.56333
       H   -17.02564   -7.41657    1.80835
       O   -17.80607   -6.87955    1.94972
      H1   -18.33731   -7.28058    2.64615
       H   -14.11310   -8.63924    6.75658
       O   -13.97031   -9.53748    7.09693
      H1   -14.82006   -9.94604    7.04126
       H   -11.26686   -8.42287    0.35912
       O   -11.44130   -8.73007    1.22680
      H1   -11.65648   -9.67855    1.13241
       H   -12.38206   -6.27128    4.53015
       O   -12.32099   -7.08190    5.04160
      H1   -11.73785   -7.66479    4.56144
       H   -15.58238   -7.79175    5.55264
       O   -15.08684   -7.00417    5.81574
      H1   -14.63043   -6.78029    4.99176
       H   -13.68814   -7.70540    3.98008
       O   -14.39355   -7.87512    3.34372
      H1   -14.40852   -8.84815    3.30361
       H   -11.55442  -10.07192    4.61293
       O   -11.17091   -9.27692    4.20842
      H1   -10.24140   -9.48518    4.27842
       H    -8.36921   -8.51299    1.86358
       O    -8.83442   -8.65324    2.70759
      H1    -9.76639   -8.91441    2.47502
       H   -14.58120  -11.58004    3.00824
       O   -14.23016  -10.72890    3.21671
      H1   -13.40411  -10.92065    3.67735
       H   -17.19788   -9.80528    4.93264
       O   -17.21924   -8.93935    5.38477
      H1   -17.95503   -8.50804    4.94731
       H   -11.88316  -12.04477    5.55779
       O   -12.42432  -11.40585    5.12466
      H1   -13.00904  -11.10180    5.84768
       H   -16.74355   -5.64564    3.29095
       O   -16.05073   -4.99555    3.53900
      H1   -16.07410   -4.98059    4.51313
       H   -15.66028   -5.31776    6.63066
       O   -15.70407   -4.40281    6.41738
      H1   -16.00381   -4.01731    7.23558

