60
frame 1 | Written by MDAnalysis XYZWriter (release 2.4.3)
       H     3.52527   14.00673    7.99786
       O     2.70926   13.67666    7.61957
      H1     2.11424   13.53535    8.36037
       H     1.00301   14.26757    9.57501
       O     0.77761   13.32627    9.52738
      H1    -0.14219   13.33786    9.27148
       H    -0.89871    9.51582    6.93211
       O    -0.44090   10.26299    7.33961
      H1     0.23039   10.50236    6.69108
       H     1.31547   12.27050    5.61844
       O     1.83729   11.52740    5.27775
      H1     2.12892   11.14171    6.12488
       H    -0.45234    7.84752    8.11830
       O    -0.10466    7.52844    8.94937
      H1     0.72851    8.00064    9.05205
       H    -0.91156    7.65712    5.92674
       O    -1.54161    7.91386    6.61946
      H1    -1.90390    7.03715    6.83541
       H     2.81119    7.07723    7.90628
       O     2.88713    7.79475    8.52892
      H1     3.75681    7.61965    8.84895
       H    -1.64735    8.04915    9.77632
       O    -2.64495    8.04548    9.76074
      H1    -2.92396    8.51741   10.56104
       H    -0.77256    9.93221    3.88562
       O    -0.24829    9.20305    4.21575
      H1     0.58068    9.23485    3.72133
       H     0.56014   11.63044    2.15062
       O     0.01381   11.79541    2.91194
      H1     0.63512   11.78167    3.67129
       H    -4.32547    8.25109    5.31516
       O    -4.11443    8.34251    6.26878
      H1    -3.16976    8.53100    6.29076
       H     1.53202   10.31935    9.00414
       O     1.26947    9.95490    9.88977
      H1     0.40702   10.36719   10.08616
       H    -3.03266   12.11528    6.73900
       O    -2.44701   12.58868    6.15326
      H1    -1.57267   12.55235    6.59116
       H    -2.23549    7.29501    2.56756
       O    -1.96878    7.17350    3.48264
      H1    -1.36750    7.94419    3.65931
       H    -3.20107   10.67522    3.69721
       O    -2.44820   10.56904    4.31890
      H1    -2.56085   11.26437    4.97248
       H     0.22719   14.01728    5.56156
       O     0.32666   13.50425    6.37665
      H1     1.11466   13.86699    6.77703
       H     1.05664    6.04572    6.35792
       O     1.99847    6.15476    6.59534
      H1     2.25280    5.35830    7.00959
       H    -1.24045   11.30096    8.44625
       O    -1.50296   11.99544    9.09443
      H1    -2.45298   12.03936    9.01340
       H    -1.29116   11.13866   10.79825
       O    -0.98964   10.69851   11.61769
      H1    -1.41937   11.22446   12.26300
       H     2.87206    9.37072    7.49899
       O     2.88011   10.32766    7.52178
      H1     3.78080   10.55839    7.33210

