60
frame 1 | Written by MDAnalysis XYZWriter (release 2.4.3)
       H    14.61895    4.81945   13.03313
       O    14.21856    4.02997   12.60319
      H1    13.72268    4.42226   11.88082
       H    12.96703   -1.50977   17.39824
       O    12.63188   -0.74709   16.92459
      H1    11.70740   -0.96626   16.78483
       H    16.05970    8.04524   14.75917
       O    16.68052    8.75824   14.85985
      H1    17.36772    8.34103   15.38246
       H    13.34144    1.08121   18.06185
       O    14.18560    1.50393   17.82390
      H1    14.20589    1.40343   16.84647
       H    14.11182    2.59152   15.10579
       O    15.00864    2.30372   15.17489
      H1    15.38095    2.63732   14.35321
       H    16.02569   -1.74247   17.76033
       O    16.55782   -2.01835   17.02772
      H1    16.81186   -1.19467   16.64305
       H    16.38593    6.05261   15.97641
       O    15.47591    6.34999   16.09170
      H1    15.33151    6.45300   17.07035
       H    17.72414    5.76044   13.84920
       O    17.65795    6.53896   13.24620
      H1    17.35336    7.30913   13.75084
       H    16.73008    0.13026   15.19059
       O    17.62785    0.18422   15.44987
      H1    18.12515   -0.08624   14.66407
       H    16.18647    9.40022   17.28563
       O    16.13149    9.49859   18.25484
      H1    15.73230   10.34996   18.36131
       H    13.36042    6.95403   12.57625
       O    13.94925    6.75319   13.30029
      H1    13.85920    7.53712   13.88877
       H    13.68411    6.05636   15.92971
       O    12.73246    6.05885   15.81853
      H1    12.41339    5.60865   16.61806
       H    12.97804    3.15926   13.75466
       O    12.43606    2.75983   14.43317
      H1    12.02515    2.00522   14.00269
       H    13.02323    8.24974   15.67015
       O    13.88586    8.60971   15.37706
      H1    14.42684    8.43640   16.13718
       H    18.22343    3.58669   15.16744
       O    17.54240    4.27029   15.13961
      H1    16.97296    4.02658   15.88145
       H    15.18615   -1.50344   15.46928
       O    14.72457   -0.73349   15.14458
      H1    13.85084   -0.79504   15.57174
       H    17.12210    3.54486   18.04987
       O    16.24413    3.77623   17.71402
      H1    15.84916    2.92620   17.45841
       H    10.32123    3.85862   17.69801
       O     9.39998    3.72245   17.92195
      H1     9.32995    2.76832   17.66422
       H    11.35690    7.21945   18.44729
       O    10.92270    6.42544   18.16347
      H1    10.62211    6.01434   18.98744
       H    12.07260    3.31855   16.41254
       O    12.40833    3.43292   17.31935
      H1    13.00758    2.69155   17.50070

