60
frame 1 | Written by MDAnalysis XYZWriter (release 2.4.3)
       H    -3.94780    4.43872   14.21134
       O    -4.88694    4.32378   14.16240
      H1    -5.21083    5.12813   14.60117
       H    -4.38213    0.92199    8.80877
       O    -5.19144    0.42335    8.83016
      H1    -4.95771   -0.42065    8.43421
       H    -8.40733    3.25543    9.82044
       O    -8.16361    3.52737    8.91842
      H1    -8.79237    3.14681    8.32388
       H    -5.80745    4.57200   10.55099
       O    -5.90116    4.28394   11.49475
      H1    -5.39223    4.92637   11.95823
       H   -10.87878    6.44912    9.64712
       O   -10.12597    5.95758    9.29504
      H1    -9.36907    6.46337    9.59630
       H    -7.05442    7.75097   10.40085
       O    -6.15651    8.03557   10.18333
      H1    -5.63742    7.47415   10.76955
       H    -3.57623    2.23354   12.45503
       O    -3.63347    2.51096   11.51305
      H1    -4.41615    3.08505   11.51718
       H    -3.97513    3.07899    7.82766
       O    -3.69391    2.28126    7.37612
      H1    -4.34315    2.21748    6.64446
       H    -7.52577    6.86699    7.22118
       O    -6.58470    6.73572    7.25251
      H1    -6.32615    6.85444    8.19023
       H    -6.65894    1.86750   15.44044
       O    -6.58382    2.81268   15.61731
      H1    -5.78759    3.11677   15.14859
       H    -8.66316    5.50711   13.92962
       O    -8.96644    6.33500   14.31598
      H1    -8.26111    6.52132   14.96466
       H    -7.00038   -0.67204   11.04951
       O    -7.19639    0.25842   10.96069
      H1    -6.49891    0.57633   10.39189
       H    -3.83110    6.41057   12.24950
       O    -4.74320    6.76812   12.18138
      H1    -5.01039    6.99489   13.08168
       H    -4.79410    4.87840    8.39165
       O    -5.23702    4.11947    8.76514
      H1    -6.08354    4.15264    8.33933
       H    -1.66279    5.42428   11.26770
       O    -2.32380    5.37055   11.98801
      H1    -2.52452    4.39161   12.05648
       H    -0.84321    3.21296    9.79958
       O    -0.83569    3.00231   10.76216
      H1    -1.70274    2.56474   10.89383
       H    -5.49567    8.14860   14.74138
       O    -5.25383    7.20844   14.69136
      H1    -4.58416    7.08996   15.35585
       H    -9.04090    8.34485   10.26120
       O    -8.59355    7.55586   10.62400
      H1    -8.90112    7.53889   11.52928
       H    -7.84344    2.18840   13.48624
       O    -8.02487    1.23793   13.35015
      H1    -7.70689    1.07153   12.44984
       H    -7.22285    4.23728   12.70777
       O    -7.83000    4.13055   13.45196
      H1    -7.28412    3.81799   14.18607

