60
frame 1 | Written by MDAnalysis XYZWriter (release 2.4.3)
       H    14.38970   18.82583   -5.89931
       O    14.88494   18.73937   -5.10309
      H1    15.24266   17.84382   -5.19699
       H    15.62584   16.91470   -1.15916
       O    15.35196   15.99803   -1.15349
      H1    15.08636   15.74230   -2.04865
       H    13.04880    9.22708   -3.87306
       O    13.37630    9.51150   -2.98127
      H1    13.98543   10.24544   -3.13730
       H    17.11633   15.63472   -8.85011
       O    17.77450   15.24225   -9.45561
      H1    17.20943   14.81373  -10.10190
       H    18.83082   12.36531   -8.56103
       O    17.99733   12.79055   -8.51445
      H1    18.17914   13.68702   -8.89823
       H    18.82204   14.47886   -3.68079
       O    17.91015   14.15758   -3.68421
      H1    17.62305   14.22915   -2.73712
       H    17.34359   17.47887   -1.76018
       O    17.87124   17.41783   -2.57516
      H1    17.62994   18.22076   -3.06193
       H    17.37758   18.47092   -7.71829
       O    18.13902   18.84957   -7.26254
      H1    17.85991   19.03728   -6.36850
       H    15.36455    9.45420   -5.21473
       O    15.53630   10.17775   -5.80715
      H1    16.46204    9.97710   -6.07046
       H    17.33881    9.74628   -2.87680
       O    17.96508   10.25644   -2.34309
      H1    18.48098   10.70561   -3.02325
       H    13.16384   13.11348   -4.44237
       O    12.40377   13.55540   -4.05386
      H1    12.83571   14.35319   -3.74635
       H    16.05317   11.15183   -1.87021
       O    15.18526   11.35123   -2.28486
      H1    14.63952   11.76357   -1.62233
       H    15.04084   13.82944   -7.21573
       O    14.23287   13.98903   -7.73185
      H1    13.63691   14.36788   -7.07390
       H    15.81149   18.95419   -0.76981
       O    16.49136   18.38279   -0.39613
      H1    16.18329   18.27544    0.51901
       H    16.46654   13.54840   -5.61385
       O    16.78452   14.01329   -6.39060
      H1    17.10266   13.32957   -6.98788
       H    14.73201   15.94703   -4.13500
       O    13.84263   15.93364   -3.77042
      H1    13.41424   16.79255   -3.95088
       H    15.14505   11.77403   -4.92605
       O    14.88899   12.68554   -4.70528
      H1    15.01533   12.70321   -3.74431
       H    16.71880   15.90317   -5.35237
       O    16.36373   16.43448   -4.62845
      H1    17.08648   16.39909   -3.99876
       H    16.67347   14.91377   -0.77258
       O    17.47390   14.52036   -1.07228
      H1    17.58367   13.71758   -0.53059
       H    18.70397   11.97413   -0.57775
       O    18.13713   12.07375    0.20148
      H1    17.40656   11.44157    0.08843

