60
frame 0 | Written by MDAnalysis XYZWriter (release 2.4.3)
       H     3.69666  -13.58001  -18.54983
       O     3.43125  -12.76202  -19.00990
      H1     2.57496  -12.57487  -18.60727
       H    -1.57697   -6.23325  -17.73500
       O    -0.62967   -6.40636  -17.94307
      H1    -0.57163   -7.38635  -17.96237
       H     2.57476   -5.44608  -13.78998
       O     1.87949   -5.63644  -13.15458
      H1     1.13712   -5.99815  -13.67041
       H     5.72946   -6.75284  -15.36413
       O     5.23773   -7.56820  -15.28261
      H1     4.75228   -7.41969  -14.44288
       H     7.95340   -6.08272  -15.13524
       O     7.04898   -5.72985  -15.08164
      H1     7.02435   -5.15892  -15.89033
       H     5.34890   -9.51147  -15.86429
       O     4.76308  -10.25748  -15.83141
      H1     5.25306  -10.91851  -16.33761
       H     3.85503   -3.83705  -13.77883
       O     4.16375   -4.58290  -14.30388
      H1     4.42242   -4.17702  -15.16246
       H     7.85578   -9.83153  -17.75493
       O     7.51757   -9.65714  -18.64081
      H1     8.13852  -10.09568  -19.23120
       H     5.75667   -5.34791  -18.90291
       O     5.79821   -5.51615  -17.93613
      H1     5.21742   -6.27410  -17.80886
       H     3.32294   -3.06239  -16.92548
       O     2.45897   -3.21914  -17.31064
      H1     2.38488   -4.18810  -17.30714
       H     3.32540  -10.06046  -14.91677
       O     2.52247  -10.00348  -14.40746
      H1     2.65135  -10.68254  -13.73465
       H     2.99586   -8.69062  -13.15595
       O     3.37249   -7.81798  -12.97479
      H1     2.65414   -7.22830  -13.16813
       H     5.97636   -2.90782  -16.32586
       O     5.07239   -3.17956  -16.50743
      H1     5.24747   -3.96477  -17.03688
       H     7.30070   -6.38035  -18.27630
       O     8.14650   -6.87548  -18.38241
      H1     7.86985   -7.76582  -18.61317
       H     4.06242   -7.62034  -16.64840
       O     3.74863   -7.44699  -17.52447
      H1     3.26268   -8.27462  -17.75944
       H     3.73537  -10.32788  -19.26240
       O     2.98027   -9.78499  -19.06410
      H1     2.59790  -10.32895  -18.33092
       H     5.35988  -13.24801  -17.05961
       O     5.87400  -12.50790  -17.35766
      H1     6.76863  -12.87080  -17.51752
       H     0.28404   -9.10817  -19.38173
       O    -0.16726   -9.03870  -18.52884
      H1    -1.00049   -9.50946  -18.69534
       H     2.25670   -6.26956  -16.97570
       O     1.65456   -5.74392  -16.38829
      H1     0.81477   -5.84747  -16.85847
       H     1.50411  -10.87323  -16.26413
       O     1.41383  -10.83768  -17.21802
      H1     0.83111  -10.07706  -17.26639

