60
frame 1 | Written by MDAnalysis XYZWriter (release 2.4.3)
       H    -3.15647    4.98012  -10.60887
       O    -2.39067    5.39760  -11.03538
      H1    -1.94814    4.66040  -11.46643
       H    -4.98384    7.43623   -8.11908
       O    -5.47685    8.25692   -8.09144
      H1    -6.15302    8.16250   -8.77259
       H    -7.38498    7.26186  -10.08421
       O    -7.19541    8.18216  -10.25240
      H1    -7.98036    8.60151   -9.90505
       H    -3.72130    6.50152  -11.56164
       O    -4.12332    7.32789  -11.88055
      H1    -4.02920    7.89939  -11.06933
       H    -1.17541    6.79061  -14.11224
       O    -0.44430    6.15952  -14.12563
      H1    -0.28084    6.02137  -15.07621
       H    -3.86617    5.65000  -13.83112
       O    -3.37337    5.97262  -14.62718
      H1    -3.30686    6.90936  -14.45077
       H    -2.25073    6.11937   -7.80614
       O    -2.99902    6.41877   -7.23900
      H1    -2.75113    7.31315   -6.91919
       H    -0.58779    8.66479  -10.61613
       O    -0.97838    8.99772   -9.76935
      H1    -0.90997    8.15878   -9.24978
       H    -7.13059    5.59986   -7.84512
       O    -7.10242    5.65621   -8.79968
      H1    -7.84589    5.09132   -9.06011
       H    -5.27683    8.42995  -15.73649
       O    -4.90216    8.76884  -14.93181
      H1    -5.19516    8.16393  -14.24256
       H    -4.21095    4.63164   -8.57080
       O    -4.58492    4.83497   -9.46763
      H1    -5.49056    5.04453   -9.20329
       H    -7.01443    6.16607  -12.58731
       O    -6.13564    5.79754  -12.79348
      H1    -5.53763    6.46967  -12.47798
       H    -6.82377    5.82761  -14.64502
       O    -7.05912    6.18527  -15.50807
      H1    -7.84650    5.66001  -15.78156
       H    -6.57584    4.28673  -11.75900
       O    -6.95341    3.54518  -11.22232
      H1    -7.14545    2.86561  -11.87485
       H    -1.23437    6.06634   -9.66357
       O    -0.79749    6.40443   -8.87205
      H1     0.13853    6.43395   -9.01388
       H    -0.24245    4.42426  -12.85294
       O    -0.75989    3.72217  -12.46619
      H1    -0.28951    3.55310  -11.62294
       H    -2.94013    8.84445   -9.85930
       O    -3.78352    9.23394  -10.10740
      H1    -4.35742    8.88930   -9.40490
       H    -4.82985    3.75695  -12.12516
       O    -4.17616    3.88333  -12.82370
      H1    -4.11082    3.00437  -13.23580
       H     0.08625    7.51868  -12.57807
       O     0.51800    8.07622  -11.87685
      H1     0.97782    8.77655  -12.37673
       H    -2.98898    8.17942  -13.03901
       O    -2.19914    8.18381  -13.60256
      H1    -2.21595    9.06824  -13.98151

