60
frame 1 | Written by MDAnalysis XYZWriter (release 2.4.3)
       H    -8.59546  -11.80625  -16.66395
       O    -7.78217  -11.43026  -17.01315
      H1    -7.09311  -12.04220  -16.75139
       H    -9.25185  -14.73391  -15.94346
       O    -9.58867  -14.53496  -15.06423
      H1   -10.04474  -15.35715  -14.78102
       H    -8.96598  -18.79408  -16.65737
       O    -8.34787  -18.18107  -17.09800
      H1    -7.95849  -18.72697  -17.78300
       H   -13.40423  -14.58579  -15.30343
       O   -13.41883  -13.59876  -15.41463
      H1   -12.85339  -13.32848  -14.66135
       H   -10.38104  -17.33030  -18.77045
       O   -10.88319  -16.63744  -18.33680
      H1   -10.15889  -16.11724  -17.92674
       H    -8.19664  -15.43613  -18.25633
       O    -8.57026  -15.54207  -17.37217
      H1    -8.43677  -16.50155  -17.24721
       H   -11.67738  -17.54829  -16.45349
       O   -12.15099  -18.22506  -15.94009
      H1   -13.01090  -17.77981  -15.85307
       H    -7.01675  -13.50603  -19.26260
       O    -7.11452  -12.56625  -19.39036
      H1    -7.48536  -12.24520  -18.56254
       H    -6.54667  -11.29160  -12.68868
       O    -7.24320  -11.68709  -13.23941
      H1    -7.21324  -12.63174  -13.06503
       H   -10.74777  -16.42639  -12.51754
       O   -11.18731  -16.50087  -13.36200
      H1   -10.98791  -17.41632  -13.63061
       H   -10.14227  -11.97401  -11.83190
       O    -9.80391  -11.23683  -12.37959
      H1    -8.89207  -11.47244  -12.60073
       H   -14.16327  -16.59460  -17.45275
       O   -13.52114  -15.87467  -17.44951
      H1   -12.87695  -16.18196  -18.10984
       H    -8.00277  -18.03457  -14.57590
       O    -7.13106  -17.62539  -14.62903
      H1    -6.85463  -17.79517  -15.51233
       H    -8.18583  -14.72001  -13.83047
       O    -7.82024  -14.70278  -12.95708
      H1    -7.27226  -15.50117  -12.93074
       H    -4.90692  -16.25861  -15.39511
       O    -5.06644  -16.43869  -16.33130
      H1    -5.08195  -15.56891  -16.69824
       H    -5.19784  -13.41192  -17.05338
       O    -5.82843  -13.55774  -16.35939
      H1    -5.40060  -13.25305  -15.56255
       H   -11.07574  -12.06701  -13.31871
       O   -11.95988  -12.41159  -13.47227
      H1   -12.51860  -11.60475  -13.38679
       H   -14.52122  -15.73845  -13.71599
       O   -13.97755  -16.54169  -13.80767
      H1   -13.04529  -16.21916  -13.84458
       H   -11.72528  -10.99030  -16.26610
       O   -12.09378  -11.11670  -17.16956
      H1   -12.80768  -11.74994  -17.07907
       H    -8.85664  -11.54988  -14.54469
       O    -9.63829  -11.70950  -15.07490
      H1    -9.78440  -12.65636  -14.90649

