60
frame 1 | Written by MDAnalysis XYZWriter (release 2.4.3)
       H    11.01679   -9.83617   -7.29296
       O    10.86687  -10.78549   -7.16845
      H1    10.87478  -11.14986   -8.08568
       H    11.42863  -14.57634   -9.06798
       O    11.00123  -13.74753   -9.23472
      H1    11.72356  -13.19488   -9.58373
       H     9.34531   -9.60382  -10.52485
       O    10.27890   -9.49806  -10.86334
      H1    10.27595   -8.74655  -11.48652
       H     8.13793  -12.53212   -7.70620
       O     8.12616  -11.58962   -7.43705
      H1     9.02586  -11.28933   -7.55865
       H     7.39724  -15.07013   -8.13939
       O     6.81674  -15.51612   -7.49735
      H1     7.45419  -15.92841   -6.86409
       H    11.23792  -13.83593   -7.16691
       O    11.11563  -14.15111   -6.28135
      H1    11.91649  -14.64230   -6.03456
       H     7.35330  -13.67045  -12.20566
       O     7.34225  -12.72603  -11.90615
      H1     7.66746  -12.24578  -12.66171
       H     7.87149  -13.99428   -9.93645
       O     8.40257  -13.81802   -9.13271
      H1     9.35802  -13.82753   -9.43661
       H     9.16387  -18.04242  -11.26064
       O     8.27103  -17.72227  -11.30430
      H1     8.36944  -16.78398  -11.22255
       H     7.84298  -11.38474  -10.24956
       O     7.84571  -10.46147   -9.96948
      H1     7.85844  -10.55680   -9.01580
       H     4.94513  -13.31761   -8.21587
       O     4.84337  -13.58751   -9.16647
      H1     4.16697  -14.26010   -9.13678
       H     5.86098  -11.59915  -11.76029
       O     5.22224  -10.91402  -11.57463
      H1     4.62294  -11.35775  -10.94296
       H    10.14660  -14.01090  -12.23866
       O    10.89956  -13.44550  -12.41888
      H1    10.48244  -12.58939  -12.63050
       H     9.83218  -15.61681   -6.02321
       O     9.16231  -16.27236   -5.80129
      H1     9.59840  -17.13341   -5.95396
       H     9.33600  -15.32816  -13.38555
       O     8.85358  -15.15709  -12.58147
      H1     8.04455  -15.66132  -12.73219
       H     4.60883  -16.55156   -7.30609
       O     4.37261  -17.49028   -7.54715
      H1     4.66268  -17.88410   -6.72651
       H     5.29750  -17.64984   -9.13266
       O     5.75066  -17.59911   -9.97025
      H1     6.70349  -17.65324   -9.79644
       H     5.57160  -14.48914  -10.64277
       O     6.19015  -15.17904  -10.92847
      H1     5.76300  -15.94154  -10.55614
       H     8.10913  -19.17565   -8.16354
       O     8.30922  -18.28502   -7.89833
      H1     7.61734  -18.05837   -7.23081
       H     6.45219  -14.32559   -5.83982
       O     5.93800  -13.74833   -5.24571
      H1     6.50284  -13.67473   -4.48716

