60
frame 1 | Written by MDAnalysis XYZWriter (release 2.4.3)
       H     7.91655   -5.77063   14.04351
       O     8.77052   -5.70431   13.57725
      H1     8.49807   -5.57837   12.62785
       H     9.94575   -7.35355   13.30488
       O    10.49202   -8.10434   13.54532
      H1    11.38564   -7.73984   13.63238
       H     7.10840   -3.35148   13.76753
       O     6.84926   -2.61702   14.31464
      H1     6.11755   -3.06901   14.78245
       H     9.44917    1.02479   13.09795
       O    10.31711    1.30711   13.41044
      H1    10.13136    2.24267   13.62998
       H    10.96520   -5.12341    9.58814
       O    10.61425   -5.17901   10.52103
      H1    11.01203   -5.99409   10.85383
       H     6.49519   -3.51645   11.45618
       O     6.64880   -4.39134   11.89368
      H1     6.28671   -5.03336   11.29369
       H    11.56950    1.09552   12.29494
       O    12.24529    1.17524   11.61828
      H1    12.86810    0.46859   11.87362
       H     9.66071   -3.70510   11.08461
       O     9.33101   -3.00461   11.64246
      H1     8.42730   -2.95740   11.39107
       H    12.26564   -7.01923   11.82690
       O    11.95465   -7.47465   11.02286
      H1    11.17959   -7.99024   11.40504
       H     9.47774   -1.57968   16.04117
       O     9.96386   -0.85375   16.42749
      H1     9.57136   -0.83445   17.29315
       H    11.89579   -2.07776    9.51949
       O    12.61479   -2.55528    9.08631
      H1    13.26808   -2.67558    9.80637
       H    14.30833   -3.60070   11.72352
       O    13.73640   -2.87843   11.52174
      H1    14.13715   -2.11049   11.94872
       H    13.30179   -3.63369   15.37994
       O    14.09279   -3.98584   15.78773
      H1    13.76978   -4.57207   16.48155
       H    12.30375   -3.27729   12.53740
       O    11.59630   -3.62812   13.09667
      H1    10.74200   -3.31424   12.72529
       H     8.40419   -1.22439   12.77547
       O     8.24909   -0.31559   12.50261
      H1     7.48216   -0.12423   13.01334
       H    13.58198   -6.43280   13.13012
       O    12.70412   -6.41313   13.51062
      H1    12.48615   -5.47524   13.55816
       H     7.95205   -5.89149   15.88279
       O     7.40889   -5.10863   15.80793
      H1     8.10509   -4.44563   15.79696
       H     9.48238   -4.46053   14.80626
       O     9.84982   -3.94331   15.53574
      H1    10.62818   -3.54631   15.14589
       H    10.04288   -6.54891   17.27901
       O    10.92262   -6.12551   17.29479
      H1    10.83446   -5.36442   16.68720
       H     9.90280   -1.77386   10.39802
       O    10.08729   -1.43804    9.50598
      H1     9.70568   -2.15400    8.96153

