60
frame 1 | Written by MDAnalysis XYZWriter (release 2.4.3)
       H     4.37621   -0.53394  -16.02360
       O     3.87348   -0.22260  -15.23208
      H1     3.02141    0.09260  -15.58860
       H     8.93571    0.49770  -19.19902
       O     9.30416   -0.31175  -18.80144
      H1    10.14148   -0.01343  -18.38482
       H    12.65802   -2.52126  -17.78600
       O    12.25333   -2.39672  -18.65352
      H1    11.37628   -2.78274  -18.50093
       H    12.40900    1.55069  -17.52463
       O    12.37395    0.66172  -17.82498
      H1    11.79877    0.17599  -17.21612
       H    10.42968    0.96761  -15.67128
       O    10.50317    0.09253  -16.11319
      H1    11.29689   -0.26386  -15.71400
       H     8.52709    0.22648  -16.84053
       O     7.65790    0.47913  -16.53485
      H1     7.67268    0.23827  -15.60511
       H     8.64644    4.40094  -17.34153
       O     8.20617    3.56072  -17.37185
      H1     8.56558    3.18983  -18.19142
       H     8.53396   -4.62358  -14.68780
       O     7.60244   -4.81498  -14.67169
      H1     7.12123   -4.23578  -15.29394
       H     8.58197   -1.83484  -11.69848
       O     8.37578   -1.10869  -12.29976
      H1     7.42183   -0.99755  -12.19217
       H    10.08059   -4.17615  -17.37716
       O    10.26639   -4.21666  -18.32496
      H1    10.86810   -4.96312  -18.41866
       H    13.30610   -0.41772  -14.03055
       O    12.48900   -0.93040  -14.21277
      H1    12.10589   -1.02438  -13.33850
       H     5.76313   -0.39671  -17.59177
       O     4.88987   -0.52009  -17.98064
      H1     5.03855   -1.32161  -18.54198
       H     7.82542    2.48646  -13.28224
       O     8.12023    3.27771  -12.79493
      H1     8.09925    2.96029  -11.85720
       H     6.47618   -2.37791  -15.59098
       O     6.04473   -3.01519  -16.18002
      H1     6.50631   -2.79752  -16.99711
       H     6.29642    3.29775  -16.91404
       O     5.72649    3.00337  -16.17468
      H1     6.21256    2.35650  -15.64434
       H     9.52108   -1.10736  -15.46166
       O     8.80679   -1.61645  -15.04989
      H1     8.98687   -1.53309  -14.11155
       H     9.13405    2.91223  -16.01345
       O     9.76676    2.64486  -15.32965
      H1     9.35198    2.99393  -14.53749
       H     8.27721   -1.76953  -18.63209
       O     7.65980   -2.54070  -18.53573
      H1     8.18911   -3.29556  -18.78576
       H    12.55449    4.57351  -15.11742
       O    11.82033    4.46467  -15.74748
      H1    11.44843    3.61302  -15.53927
       H     5.05244    1.02509  -13.83990
       O     5.73749    1.58645  -13.47264
      H1     6.01684    1.05612  -12.69413

