60
frame 1 | Written by MDAnalysis XYZWriter (release 2.4.3)
       H   -13.70342   -1.49452   -4.85954
       O   -14.14623   -2.30250   -5.17258
      H1   -14.48273   -2.73941   -4.37105
       H   -10.44899   -5.34197    1.07515
       O   -10.94818   -5.03765    1.81514
      H1   -10.31999   -5.24325    2.53992
       H   -12.02746   -3.84811   -2.87497
       O   -11.67578   -4.17713   -3.68824
      H1   -10.93224   -4.73855   -3.42238
       H   -11.47630   -2.63224   -0.98369
       O   -12.31320   -2.99590   -1.27580
      H1   -12.69431   -3.28552   -0.42561
       H   -13.07295   -6.70278   -4.43678
       O   -13.78805   -6.43839   -3.82200
      H1   -13.50794   -5.57478   -3.51148
       H   -13.77779   -5.03027    0.81550
       O   -14.08315   -4.17480    0.52933
      H1   -14.52048   -3.81953    1.34465
       H   -12.56985   -5.15055    2.71952
       O   -13.09032   -4.97958    3.54128
      H1   -14.02391   -5.03485    3.27145
       H   -14.50937   -7.30632    0.27934
       O   -13.80074   -6.80481    0.65583
      H1   -13.82110   -7.10512    1.56333
       H    -8.86907   -7.03441   -0.25864
       O    -9.40077   -6.22147   -0.19242
      H1   -10.22093   -6.51710   -0.62778
       H    -8.78607   -1.60185   -2.17623
       O    -9.49820   -1.32143   -1.61217
      H1   -10.08338   -0.89368   -2.22168
       H   -14.63876   -0.94279    2.41077
       O   -14.55883   -1.65535    1.76568
      H1   -14.60132   -1.14042    0.95712
       H   -12.66555   -2.38191    1.93818
       O   -11.68941   -2.28630    1.96315
      H1   -11.35779   -3.19893    2.02622
       H   -15.65959   -6.35969   -1.33480
       O   -16.00474   -5.59390   -0.86937
      H1   -15.25512   -5.22524   -0.39712
       H    -8.17437   -5.23412   -2.87874
       O    -9.13572   -5.21957   -2.84210
      H1    -9.33158   -5.64151   -2.00699
       H   -15.22685   -2.87857   -2.38261
       O   -15.13371   -3.75559   -2.79745
      H1   -15.41170   -4.34662   -2.11093
       H   -11.98689   -8.01484   -1.60052
       O   -11.83082   -7.18577   -1.18357
      H1   -12.53534   -7.06112   -0.53459
       H   -12.51963   -1.35514   -1.49920
       O   -12.28772   -0.41880   -1.72534
      H1   -12.66614   -0.33565   -2.60126
       H    -9.20657   -1.54462    0.48570
       O    -8.80762   -1.53133    1.33081
      H1    -8.39967   -2.38300    1.40021
       H   -14.42847   -0.44494   -1.37319
       O   -15.04437   -1.17827   -1.37514
      H1   -15.90450   -0.76911   -1.60683
       H   -12.14672    0.39670   -0.11748
       O   -11.63321    0.50660    0.69495
      H1   -11.27176   -0.37390    0.81845

