60
frame 1 | Written by MDAnalysis XYZWriter (release 2.4.3)
       H     2.12483    6.81791   -5.83424
       O     1.77885    6.76665   -6.73172
      H1     2.28164    6.05353   -7.16884
       H     0.27456    4.15296   -6.08963
       O    -0.30053    4.93769   -6.05163
      H1     0.25471    5.58353   -6.48980
       H     1.56587    7.94169   -4.14991
       O     2.47659    7.68549   -4.25130
      H1     2.55759    7.05263   -3.55793
       H    -2.25073    6.11937   -7.80614
       O    -2.99902    6.41877   -7.23900
      H1    -2.75113    7.31315   -6.91919
       H    -0.58779    8.66479  -10.61613
       O    -0.97838    8.99772   -9.76935
      H1    -0.90997    8.15878   -9.24978
       H     2.42031    2.68336   -2.96958
       O     1.65951    3.17575   -3.34095
      H1     1.83494    3.23585   -4.29246
       H     0.31651    9.47794   -8.65095
       O     1.15081    9.35845   -8.17484
      H1     0.96760    8.68653   -7.50055
       H     2.55527    3.08140   -8.70638
       O     1.87852    2.37545   -8.63324
      H1     2.14045    1.72141   -9.28498
       H     5.50348    5.25140   -5.42023
       O     5.54268    4.68790   -4.64335
      H1     5.04991    5.14967   -3.96819
       H     6.36532    4.93615   -7.17686
       O     5.62522    5.42289   -7.55159
      H1     5.72920    5.26655   -8.47174
       H     4.71181    9.31126   -5.89894
       O     5.43670    9.00564   -6.46476
      H1     4.96981    8.41529   -7.04376
       H     2.36083   12.23117   -6.16872
       O     1.93135   11.38410   -6.21009
      H1     2.40800   10.99822   -6.93091
       H    -1.37747    8.66101   -6.09875
       O    -1.96777    8.84811   -6.81061
      H1    -2.00831    9.81409   -6.86248
       H     1.49654    5.53446  -10.48214
       O     1.73681    6.41933  -10.20858
      H1     1.35406    7.01305  -10.85391
       H    -1.23437    6.06634   -9.66357
       O    -0.79749    6.40443   -8.87205
      H1     0.13853    6.43395   -9.01388
       H     0.95833    3.54243   -9.21115
       O     0.26763    3.86843   -9.79611
      H1    -0.23899    4.45712   -9.21877
       H     2.91799    5.56483   -8.75866
       O     3.09581    4.85902   -8.16534
      H1     4.05278    4.92763   -8.02085
       H    -0.31483    7.21776   -4.68013
       O    -0.16059    8.16480   -4.70092
      H1    -0.53820    8.45108   -3.84980
       H     3.55063    8.15894   -9.85917
       O     3.76067    8.78700   -9.16120
      H1     2.89218    8.85152   -8.74807
       H     0.29511    5.27801   -3.04576
       O    -0.46374    5.65946   -3.50278
      H1    -0.48660    5.20459   -4.34241

