60
frame 1 | Written by MDAnalysis XYZWriter (release 2.4.3)
       H   -12.60713    0.24517   10.07842
       O   -11.99973    0.02123   10.79294
      H1   -12.48838    0.32777   11.58318
       H   -13.85977   -0.97319   15.86969
       O   -13.04180   -0.44888   15.99202
      H1   -12.37962   -1.12159   16.16926
       H    -8.54105    0.04084    9.66084
       O    -9.29989   -0.45041    9.35884
      H1   -10.08213    0.03329    9.76712
       H   -12.99789   -7.41582   12.35268
       O   -12.53919   -8.11493   11.83190
      H1   -11.68479   -8.06581   12.26720
       H    -7.28861   -2.03390   14.46861
       O    -7.41657   -1.88370   13.52859
      H1    -8.20341   -1.30962   13.46090
       H   -11.41735   -3.21148   12.48090
       O   -10.98478   -2.47197   12.05389
      H1   -11.15695   -2.60329   11.08034
       H    -8.46954   -3.87347   10.37222
       O    -8.46472   -4.59978   11.03168
      H1    -8.24452   -4.17443   11.86254
       H   -12.34265   -1.41642   12.78591
       O   -13.00962   -0.78677   13.05093
      H1   -12.80433   -0.57300   13.97158
       H   -10.74260    0.07052   13.60123
       O   -10.23441   -0.66603   13.94069
      H1   -10.28133   -1.35333   13.26153
       H    -9.27073   -4.73529   13.99222
       O    -9.66688   -4.52169   14.82539
      H1    -9.31341   -5.20123   15.42306
       H    -8.37458   -7.49931    9.78274
       O    -8.58265   -7.31522   10.69358
      H1    -8.55833   -6.34211   10.79389
       H   -11.57049   -7.18669   10.27479
       O   -11.03171   -6.53966    9.78786
      H1   -10.18868   -6.85979   10.08233
       H   -10.72595   -1.52032   15.56793
       O   -10.79965   -1.96806   16.38562
      H1   -11.20677   -2.83904   16.19539
       H   -12.04704   -4.60909   14.02615
       O   -12.22557   -4.74983   13.09500
      H1   -13.08768   -4.39977   12.95853
       H   -15.14612   -3.27855   12.73352
       O   -14.95381   -4.12464   13.07043
      H1   -15.17490   -4.71642   12.34391
       H   -10.86579   -7.18408   13.65056
       O   -10.35505   -6.72168   12.96409
      H1   -10.84014   -5.91345   12.81120
       H   -11.72294   -4.72212    9.84247
       O   -11.75600   -3.77627    9.71343
      H1   -12.68650   -3.55340    9.65791
       H   -14.35580   -1.36696   11.92421
       O   -15.17145   -1.78000   11.65281
      H1   -15.20385   -1.61795   10.71298
       H   -13.52614   -4.32086   15.89591
       O   -12.56841   -4.19013   15.83644
      H1   -12.23430   -4.73310   16.56112
       H    -8.67094   -2.14404    9.18421
       O    -8.43684   -3.03263    8.85329
      H1    -9.29505   -3.43063    8.62337

