60
frame 1 | Written by MDAnalysis XYZWriter (release 2.4.3)
       H    -1.01585   -7.13915   17.51493
       O    -0.63937   -6.80499   16.67685
      H1    -0.86164   -7.51641   16.04532
       H    -4.40070   -0.58886   15.41194
       O    -4.34285   -0.19911   16.29950
      H1    -5.22467   -0.38745   16.61847
       H    -8.97840   -5.77240   18.70602
       O    -8.79228   -5.82043   17.75497
      H1    -8.71008   -6.75732   17.63582
       H    -5.33022   -7.44999   15.91749
       O    -5.90328   -7.38205   16.69554
      H1    -6.81179   -7.37432   16.32359
       H    -4.90469   -8.12837   18.18427
       O    -4.83697   -8.78038   18.89005
      H1    -3.91356   -9.11979   18.79476
       H    -7.25419   -1.65967   16.98930
       O    -6.84259   -1.18685   16.24297
      H1    -7.15277   -0.30310   16.41734
       H    -0.00993   -4.91763   16.68900
       O    -0.03107   -3.97601   16.46535
      H1     0.13636   -3.99810   15.50656
       H    -5.53681   -4.90995   17.81029
       O    -6.40040   -4.53386   18.04144
      H1    -7.01323   -5.21401   17.68933
       H    -2.60171   -1.73721   16.87709
       O    -2.33559   -2.59705   17.21671
      H1    -1.43145   -2.67316   16.90657
       H    -2.61261   -4.71564   18.14025
       O    -3.40476   -5.23748   18.46004
      H1    -3.01857   -5.77030   19.17228
       H     1.54772   -2.36322   16.80531
       O     2.34795   -2.45988   16.30384
      H1     2.73042   -1.56983   16.24259
       H    -2.31091  -10.81179   18.38379
       O    -2.46072   -9.88410   18.29533
      H1    -2.43523   -9.72928   17.33795
       H    -1.99939   -8.14416   12.74578
       O    -1.59411   -7.42395   13.25574
      H1    -1.77437   -6.60681   12.76124
       H    -4.22277   -4.64100   14.88743
       O    -3.86741   -3.79767   14.59294
      H1    -3.18736   -3.57545   15.23906
       H    -2.58160   -8.85716   15.29842
       O    -2.15901   -9.66154   15.59604
      H1    -1.68899   -9.99640   14.83864
       H    -5.92482  -11.24026   17.23976
       O    -5.48729  -10.51124   16.81892
      H1    -5.16473  -10.00044   17.57981
       H    -8.46918   -3.10042   18.50069
       O    -8.77603   -2.22359   18.24308
      H1    -9.42239   -2.43819   17.56416
       H    -8.37457   -8.97190   18.55897
       O    -8.89017   -9.12210   17.74072
      H1    -9.70149   -9.48477   18.06645
       H     0.58676  -10.01888   18.49784
       O     0.23863  -10.26614   19.37318
      H1    -0.65010   -9.91670   19.28856
       H    -2.85831   -6.68733   14.66711
       O    -3.52529   -6.80239   15.32381
      H1    -3.17627   -6.34784   16.14636

