60
frame 1 | Written by MDAnalysis XYZWriter (release 2.4.3)
       H     3.47251   -4.95995    3.82580
       O     2.98715   -5.52804    3.20576
      H1     3.71022   -5.80403    2.61857
       H     2.69303  -10.17466    2.33786
       O     1.82997   -9.79577    2.13559
      H1     1.81889  -10.04857    1.21433
       H     5.37170  -10.37110    7.87000
       O     6.12440  -10.91702    8.15278
      H1     6.32572  -11.52572    7.42010
       H     7.71823   -9.71219    7.97326
       O     8.58485   -9.37155    7.67093
      H1     8.77698   -8.74430    8.39070
       H     2.08993   -6.95460    3.62334
       O     1.57998   -7.66819    4.00747
      H1     1.61279   -8.32069    3.28414
       H     8.51953  -10.19781    4.88019
       O     8.80719   -9.29613    4.91610
      H1     8.64849   -9.11667    5.85164
       H     1.05253   -9.02537    6.81868
       O     1.90631   -8.63182    6.59510
      H1     1.81988   -8.32812    5.66691
       H     9.30991   -7.05702    4.69144
       O     8.97609   -6.39840    4.10268
      H1     9.25445   -5.58778    4.52915
       H     5.25812   -8.15410    7.80516
       O     4.90977   -8.65157    8.52473
      H1     5.53409   -8.47800    9.22980
       H     3.11953   -8.09709    9.21372
       O     2.41616   -8.42405    9.79048
      H1     2.41355   -9.32690    9.50172
       H     8.23439  -11.88605    4.85641
       O     7.73944  -11.66322    4.06420
      H1     6.79854  -11.67340    4.36684
       H     2.71478  -12.41825    6.44721
       O     2.36905  -11.51336    6.36782
      H1     2.44450  -11.24387    7.28578
       H     5.73800   -5.28625    7.44365
       O     5.63658   -4.80902    8.28056
      H1     5.75365   -3.89383    7.99818
       H     7.30576   -7.39234    3.96964
       O     6.37494   -7.52934    3.71676
      H1     6.42121   -8.29540    3.10492
       H     4.96160   -4.02909    5.24873
       O     4.03063   -4.18950    5.37027
      H1     3.83680   -3.59719    6.11507
       H     3.93913   -9.20541    5.90867
       O     4.70692   -9.45456    5.36891
      H1     5.06370   -8.59345    5.10697
       H     4.60017  -11.64461    3.63661
       O     4.02246  -10.99069    3.26305
      H1     3.89950  -10.36431    4.00199
       H     4.75229   -7.47828    0.71177
       O     4.25678   -8.24854    0.38314
      H1     3.29912   -7.98881    0.45567
       H     5.30225  -10.13808    2.42331
       O     5.98277   -9.66478    1.94700
      H1     5.41633   -9.15715    1.34593
       H     4.75245   -6.01263    5.97495
       O     5.47328   -6.60532    6.14344
      H1     5.86300   -6.65884    5.23996

