60
frame 1 | Written by MDAnalysis XYZWriter (release 2.4.3)
       H    -3.94780    4.43872   14.21134
       O    -4.88694    4.32378   14.16240
      H1    -5.21083    5.12813   14.60117
       H    -4.44043   -2.08628   13.99108
       O    -4.36774   -1.27119   13.48126
      H1    -5.30298   -1.10103   13.28938
       H     1.87204    3.68551   17.94401
       O     0.98368    3.67479   17.56840
      H1     0.38321    3.87610   18.30179
       H    -4.40070   -0.58886   15.41194
       O    -4.34285   -0.19911   16.29950
      H1    -5.22467   -0.38745   16.61847
       H    -4.73045    4.25854   17.78896
       O    -3.81334    4.46899   17.58853
      H1    -3.64553    5.15382   18.24221
       H    -3.11924    6.11642   16.41217
       O    -3.34157    7.02829   16.63270
      H1    -2.85621    7.53856   15.97261
       H    -1.67699    1.85641   18.42931
       O    -1.29815    2.21612   19.24026
      H1    -0.38090    1.92706   19.33287
       H    -3.57623    2.23354   12.45503
       O    -3.63347    2.51096   11.51305
      H1    -4.41615    3.08505   11.51718
       H    -6.31104    0.95452   18.25713
       O    -7.00401    1.25215   17.64328
      H1    -6.58395    1.95180   17.11137
       H     0.42749    1.28919   15.90131
       O     1.16774    0.84046   16.22034
      H1     1.73269    1.48598   16.66483
       H    -6.65894    1.86750   15.44044
       O    -6.58382    2.81268   15.61731
      H1    -5.78759    3.11677   15.14859
       H    -7.25419   -1.65967   16.98930
       O    -6.84259   -1.18685   16.24297
      H1    -7.15277   -0.30310   16.41734
       H    -3.43395    2.63702   17.07026
       O    -2.79408    1.91513   16.95947
      H1    -3.32825    1.17847   16.59200
       H    -2.84650    0.53530   14.38079
       O    -2.95893    1.30518   13.83825
      H1    -2.11989    1.78017   13.93238
       H    -1.66279    5.42428   11.26770
       O    -2.32380    5.37055   11.98801
      H1    -2.52452    4.39161   12.05648
       H    -0.48447   -0.04562   15.54410
       O    -1.27896   -0.57860   15.46518
      H1    -1.14444   -1.08103   14.62753
       H    -2.60171   -1.73721   16.87709
       O    -2.33559   -2.59705   17.21671
      H1    -1.43145   -2.67316   16.90657
       H    -0.34935    3.26789   14.29752
       O    -0.65122    2.38973   14.55960
      H1    -1.36760    2.54372   15.16343
       H    -1.50901    5.33535   15.22960
       O    -2.20321    4.92569   14.70024
      H1    -1.96270    5.20430   13.82853
       H     0.71710    6.32782   15.68402
       O     0.04614    5.82867   16.13744
      H1     0.52845    5.05343   16.41442

