60
frame 1 | Written by MDAnalysis XYZWriter (release 2.4.3)
       H     2.46154   -7.46013  -10.35739
       O     3.06719   -7.91142  -10.94519
      H1     2.48728   -8.07517  -11.70327
       H     0.71141   -9.84397   -9.31320
       O     0.68649  -10.30330  -10.16708
      H1     1.56844  -10.66704  -10.17174
       H     2.06965  -11.45950   -7.91402
       O     2.22929  -10.62928   -7.42064
      H1     2.95964  -10.80623   -6.81203
       H     3.56035  -10.72362   -9.32654
       O     3.11635  -11.31259   -9.96781
      H1     3.29771  -12.16095   -9.58587
       H     7.35330  -13.67045  -12.20566
       O     7.34225  -12.72603  -11.90615
      H1     7.66746  -12.24578  -12.66171
       H     3.46099   -9.49752   -8.10116
       O     4.17430   -9.30400   -8.74824
      H1     3.79668   -8.86459   -9.52495
       H     2.01866  -11.64012  -11.61302
       O     1.71343  -12.42244  -12.06282
      H1     0.86897  -12.60546  -11.63562
       H     6.19502   -9.52629   -8.01385
       O     6.61136   -9.17429   -7.24277
      H1     5.91001   -8.67256   -6.79756
       H     0.01517  -13.25153   -8.21878
       O     0.78165  -12.80108   -8.51813
      H1     0.44389  -11.96434   -8.93104
       H     4.75761  -10.34703  -13.38818
       O     4.26705   -9.76715  -14.00456
      H1     4.87065   -9.60705  -14.76093
       H     7.84298  -11.38474  -10.24956
       O     7.84571  -10.46147   -9.96948
      H1     7.85844  -10.55680   -9.01580
       H     1.88523  -15.63793  -12.71558
       O     2.17735  -15.15848  -11.93056
      H1     2.05720  -14.21106  -12.16550
       H    -0.49177  -14.27891  -10.45806
       O    -0.78101  -13.46216  -10.82317
      H1    -1.71127  -13.46586  -10.81139
       H     1.87558  -14.21761   -9.09457
       O     2.50290  -14.92648   -9.22787
      H1     2.32019  -15.25357  -10.12343
       H     4.94513  -13.31761   -8.21587
       O     4.84337  -13.58751   -9.16647
      H1     4.16697  -14.26010   -9.13678
       H     5.86098  -11.59915  -11.76029
       O     5.22224  -10.91402  -11.57463
      H1     4.62294  -11.35775  -10.94296
       H     2.46791  -10.21776  -14.38590
       O     1.57502  -10.53776  -14.19155
      H1     1.72739  -11.21675  -13.47485
       H     5.70940  -11.73366   -6.00973
       O     4.91261  -11.17826   -6.05716
      H1     5.17739  -10.28581   -5.76453
       H     5.57160  -14.48914  -10.64277
       O     6.19015  -15.17904  -10.92847
      H1     5.76300  -15.94154  -10.55614
       H     3.74837  -13.07146  -14.16272
       O     3.80296  -12.84837  -15.10757
      H1     4.66252  -13.21583  -15.38226

