60
frame 1 | Written by MDAnalysis XYZWriter (release 2.4.3)
       H    19.13907   14.39223   11.00838
       O    18.19407   14.50642   11.09414
      H1    17.93532   14.57865   10.17444
       H    17.03992   16.98739   16.13236
       O    16.85142   17.90464   15.97035
      H1    15.92409   18.04909   16.26795
       H    14.50402   13.65743   14.95425
       O    14.05364   14.28073   15.57436
      H1    13.42346   13.77684   16.04953
       H    16.05970    8.04524   14.75917
       O    16.68052    8.75824   14.85985
      H1    17.36772    8.34103   15.38246
       H    18.51986   12.76423   17.88966
       O    18.45489   12.00577   17.28354
      H1    18.79302   12.35273   16.46195
       H    15.93579   16.32775   13.32259
       O    16.73913   16.86856   13.32163
      H1    16.67107   17.39232   14.11916
       H    11.49698   10.34803   18.41803
       O    11.63182    9.97102   17.53524
      H1    10.75634    9.72855   17.19265
       H    14.99246    7.75966   12.36643
       O    15.48587    8.34338   11.76680
      H1    15.00200    9.16311   11.81099
       H    14.60953   11.49038   13.44260
       O    15.28879   12.12892   13.68316
      H1    16.11209   11.63754   13.47503
       H    16.38593    6.05261   15.97641
       O    15.47591    6.34999   16.09170
      H1    15.33151    6.45300   17.07035
       H    17.72414    5.76044   13.84920
       O    17.65795    6.53896   13.24620
      H1    17.35336    7.30913   13.75084
       H    16.18647    9.40022   17.28563
       O    16.13149    9.49859   18.25484
      H1    15.73230   10.34996   18.36131
       H    15.70379   16.49282   17.46649
       O    15.99760   15.62588   17.14319
      H1    15.21327   15.30907   16.66301
       H    15.48622   11.84240   15.67813
       O    15.56388   11.86814   16.65015
      H1    16.53986   11.83737   16.76619
       H    13.02323    8.24974   15.67015
       O    13.88586    8.60971   15.37706
      H1    14.42684    8.43640   16.13718
       H    17.63441   13.31038   14.93264
       O    17.75130   14.24978   15.18124
      H1    16.87438   14.48684   15.49794
       H    17.02530   10.63275   11.59986
       O    17.43336   10.39075   12.46089
      H1    16.84710    9.63478   12.72349
       H    13.13507    9.61044   13.79250
       O    13.41011    9.57041   12.85042
      H1    12.55855    9.66509   12.40696
       H    11.08634   13.35427   16.87600
       O    11.93245   12.90030   16.99719
      H1    11.70648   11.97631   16.83515
       H    16.30404   14.41810   12.12823
       O    15.36624   14.43504   12.27517
      H1    15.24417   13.57842   12.67528

