60
frame 1 | Written by MDAnalysis XYZWriter (release 2.4.3)
       H   -11.29017  -13.47252   -6.48255
       O   -11.53067  -12.57828   -6.25693
      H1   -12.46466  -12.67778   -6.05063
       H    -5.60540  -10.07721   -4.29909
       O    -6.16366   -9.27890   -4.37664
      H1    -6.01278   -9.02475   -5.31235
       H    -4.29972  -12.59719   -3.63446
       O    -5.03550  -12.29748   -4.18648
      H1    -5.19633  -13.05698   -4.76110
       H   -12.47730  -10.78471   -3.64803
       O   -11.71917  -11.36143   -3.76300
      H1   -11.81739  -11.64476   -4.69280
       H   -10.42760  -17.08669   -4.84726
       O   -10.59488  -17.72285   -5.54412
      H1   -11.13675  -17.17424   -6.15505
       H    -8.05375  -12.74220   -3.60335
       O    -8.86374  -12.97313   -4.11646
      H1    -8.68537  -13.87951   -4.33860
       H   -11.56487  -16.49793   -3.03213
       O   -10.61734  -16.23093   -3.06133
      H1   -10.66803  -15.29858   -2.86684
       H   -10.86548  -10.17523   -2.35380
       O   -10.46626   -9.93762   -1.49851
      H1   -10.04269  -10.76278   -1.20789
       H    -8.79442  -16.09464   -3.15225
       O    -7.88178  -15.75769   -3.17724
      H1    -7.41614  -16.50662   -3.52370
       H   -11.20064  -12.96876   -3.09960
       O   -11.20200  -13.61751   -2.38519
      H1   -12.10662  -13.62250   -2.09085
       H   -10.47050   -9.91357   -3.96907
       O   -10.04200   -9.06325   -4.12711
      H1    -9.35144   -9.28649   -4.80826
       H    -7.68190  -10.82764   -7.70107
       O    -7.07743  -10.71364   -8.42746
      H1    -7.68315  -10.48702   -9.14619
       H    -8.01184  -15.85849   -6.95591
       O    -8.04670  -14.98343   -6.58245
      H1    -8.19229  -14.43553   -7.34146
       H    -5.31894  -15.28389   -5.60303
       O    -5.45161  -14.38438   -5.92928
      H1    -6.28680  -14.40319   -6.40143
       H    -8.18030  -15.29607    0.18274
       O    -7.43232  -15.15387   -0.41123
      H1    -7.82767  -15.21701   -1.27786
       H   -11.26971  -15.05587   -5.77095
       O   -10.80843  -15.11840   -6.63430
      H1    -9.90429  -14.88090   -6.39447
       H    -8.66983   -9.61747   -2.29216
       O    -7.75080   -9.59813   -2.04450
      H1    -7.37372   -8.95906   -2.65542
       H    -7.46956  -10.45086   -5.21085
       O    -8.22151  -10.49830   -5.82177
      H1    -8.66151  -11.27348   -5.42388
       H    -6.15181  -12.24257   -2.71089
       O    -6.92666  -12.33705   -2.13041
      H1    -7.22194  -11.43391   -1.97282
       H    -8.46692  -12.59799   -1.23238
       O    -9.28424  -12.33451   -0.81371
      H1    -9.95847  -12.72131   -1.39386

