60
frame 1 | Written by MDAnalysis XYZWriter (release 2.4.3)
       H    -2.04320   -9.00478  -15.33644
       O    -1.86537   -8.20531  -15.86590
      H1    -1.08842   -7.88822  -15.41703
       H    -8.59546  -11.80625  -16.66395
       O    -7.78217  -11.43026  -17.01315
      H1    -7.09311  -12.04220  -16.75139
       H    -1.71742   -7.54216  -17.88920
       O    -1.24113   -7.09935  -18.61542
      H1    -0.81513   -6.31970  -18.21892
       H     2.55154  -13.82314  -15.65533
       O     2.11341  -14.58001  -16.07728
      H1     2.04694  -14.37490  -17.02099
       H    -1.31009  -14.68786  -16.83995
       O    -1.46309  -15.61366  -17.10207
      H1    -0.86568  -15.73968  -17.85057
       H     1.41625  -14.90435  -18.79091
       O     1.85588  -14.06441  -18.61291
      H1     1.24536  -13.36903  -18.91244
       H    -2.04420  -10.86336  -13.88975
       O    -2.40404  -10.98524  -14.77468
      H1    -1.81653  -11.66392  -15.13969
       H    -0.37331  -14.92676  -13.94786
       O    -1.03049  -14.25454  -13.66815
      H1    -0.80890  -14.07076  -12.73110
       H    -2.51316  -15.52160  -13.46770
       O    -3.46724  -15.62308  -13.66501
      H1    -3.64824  -16.51343  -13.47423
       H    -0.12264  -12.79950  -16.35806
       O    -0.99929  -13.03746  -16.05381
      H1    -0.86671  -13.38471  -15.19664
       H    -4.51080   -9.96474  -16.82023
       O    -5.36425   -9.86361  -16.42122
      H1    -6.00016   -9.91524  -17.13811
       H    -3.83848  -13.65873  -13.81154
       O    -4.49970  -12.96965  -13.82937
      H1    -4.08217  -12.13688  -14.13379
       H     2.46791  -10.21776  -14.38590
       O     1.57502  -10.53776  -14.19155
      H1     1.72739  -11.21675  -13.47485
       H    -3.88105  -14.76050  -19.31023
       O    -3.77645  -14.48221  -18.40109
      H1    -3.16088  -15.13332  -18.01211
       H    -4.37297   -7.72795  -17.40581
       O    -3.98306   -6.95159  -16.99617
      H1    -3.27987   -7.37363  -16.45644
       H    -4.90692  -16.25861  -15.39511
       O    -5.06644  -16.43869  -16.33130
      H1    -5.08195  -15.56891  -16.69824
       H     2.84323   -9.80152  -17.17108
       O     2.31260   -9.02820  -17.29492
      H1     1.47227   -9.33224  -17.65867
       H    -2.92672  -13.07401  -18.46043
       O    -2.42071  -12.27695  -18.45764
      H1    -1.92739  -12.38937  -17.60902
       H    -5.19784  -13.41192  -17.05338
       O    -5.82843  -13.55774  -16.35939
      H1    -5.40060  -13.25305  -15.56255
       H     1.21785  -11.46818  -15.69682
       O     1.31980  -11.83740  -16.58792
      H1     0.93232  -11.15888  -17.15936

