60
frame 1 | Written by MDAnalysis XYZWriter (release 2.4.3)
       H    15.23888   12.31522    7.72110
       O    15.13035   12.26011    6.77047
      H1    15.47156   11.40692    6.51996
       H    14.78020   13.83939    9.27803
       O    14.38870   12.96886    9.36984
      H1    13.46473   13.15053    9.16668
       H    17.98528   13.68550    4.44405
       O    17.22213   13.15482    4.10555
      H1    16.82469   12.74602    4.88819
       H    11.37409   18.28820    9.02531
       O    11.00956   17.42055    8.80390
      H1    11.70813   16.95474    8.26728
       H    14.32258   16.65375    8.59562
       O    14.71475   16.88111    9.46377
      H1    14.01777   16.80466   10.13457
       H    11.48084   10.70252   10.00105
       O    11.45529   10.46540   10.93398
      H1    11.54332   11.33069   11.38054
       H     8.20735   11.42087    6.97989
       O     8.58090   10.56187    6.70925
      H1     8.30813    9.98924    7.42475
       H    11.71569   11.89128    5.19189
       O    11.85247   11.63481    4.28427
      H1    10.97706   11.37312    4.03966
       H    14.58870    9.75101    9.10140
       O    13.95893    9.26854    8.55338
      H1    14.38625    8.42939    8.34935
       H    10.74802    9.90571    7.85464
       O    11.45968   10.56499    7.96021
      H1    12.28993   10.01800    7.85345
       H    12.78954   16.61088    6.54292
       O    13.00003   16.04619    7.31556
      H1    12.76274   15.19481    6.94544
       H    13.10912   18.57482    5.03933
       O    12.63418   17.75046    5.23350
      H1    11.73087   18.09987    5.17174
       H    11.86826   15.08984    3.52825
       O    12.49702   14.36296    3.56396
      H1    12.06679   13.65133    3.97628
       H    14.05765    9.37507    3.76999
       O    13.39307    9.36199    4.48438
      H1    12.92899   10.16896    4.39890
       H    11.97772   12.62391    7.00424
       O    12.41748   13.36412    6.53939
      H1    13.34856   13.10831    6.42475
       H     9.56467   13.93470    9.86838
       O     9.43053   12.97227    9.82180
      H1     8.72447   12.76763    9.20001
       H    15.51507   14.45691    3.42787
       O    14.97985   15.24586    3.28342
      H1    14.13523   15.00153    3.64764
       H     7.49171   15.56380    5.55246
       O     8.30785   15.38932    6.03620
      H1     8.60058   16.27266    6.31977
       H     6.88654   13.04084    7.45335
       O     7.82086   13.02704    7.65183
      H1     8.11108   13.73362    7.03916
       H     9.80866   14.91813    3.29489
       O    10.13318   15.67907    3.80504
      H1     9.60903   15.63028    4.59912

