60
frame 1 | Written by MDAnalysis XYZWriter (release 2.4.3)
       H    -7.58953   -4.26138   -7.00212
       O    -8.40419   -4.73020   -7.12332
      H1    -8.37382   -5.45553   -6.46673
       H   -13.70342   -1.49452   -4.85954
       O   -14.14623   -2.30250   -5.17258
      H1   -14.48273   -2.73941   -4.37105
       H   -12.02746   -3.84811   -2.87497
       O   -11.67578   -4.17713   -3.68824
      H1   -10.93224   -4.73855   -3.42238
       H   -11.47630   -2.63224   -0.98369
       O   -12.31320   -2.99590   -1.27580
      H1   -12.69431   -3.28552   -0.42561
       H   -13.07295   -6.70278   -4.43678
       O   -13.78805   -6.43839   -3.82200
      H1   -13.50794   -5.57478   -3.51148
       H   -11.60201   -3.64581   -7.77250
       O   -10.79113   -3.12899   -7.77256
      H1   -10.09221   -3.70817   -7.43897
       H    -8.27803   -3.51321   -2.68769
       O    -7.55160   -2.91061   -2.67327
      H1    -7.18412   -3.00503   -1.78120
       H    -7.85450   -0.35448   -6.98053
       O    -7.87484   -0.68607   -6.04571
      H1    -8.57359   -1.35700   -6.01978
       H   -10.95705   -0.93221  -10.65758
       O   -10.70864   -1.87270  -10.50454
      H1   -10.92209   -1.99516   -9.57112
       H   -13.95499    0.87739   -3.89748
       O   -13.12360    0.48954   -4.14267
      H1   -12.44683    1.05207   -3.73134
       H   -13.84638   -3.29400   -6.81022
       O   -13.70996   -3.80701   -7.61225
      H1   -13.76549   -3.12883   -8.29519
       H    -8.78607   -1.60185   -2.17623
       O    -9.49820   -1.32143   -1.61217
      H1   -10.08338   -0.89368   -2.22168
       H   -12.26629    0.50834   -5.72660
       O   -12.32874    0.71818   -6.68324
      H1   -11.40332    0.67429   -6.99654
       H   -10.84998   -2.25820   -4.89213
       O   -10.71352   -1.61670   -5.61143
      H1   -10.70743   -2.12625   -6.39433
       H    -6.06856   -2.07252   -3.80386
       O    -5.19626   -2.22894   -4.19283
      H1    -5.02375   -1.40377   -4.65058
       H   -10.33222    2.04710   -3.77148
       O   -11.23179    2.28950   -3.57492
      H1   -11.20272    2.60926   -2.69111
       H    -8.17437   -5.23412   -2.87874
       O    -9.13572   -5.21957   -2.84210
      H1    -9.33158   -5.64151   -2.00699
       H    -8.53315    0.69965   -3.52687
       O    -8.78004    1.01843   -4.42954
      H1    -8.51940    0.22344   -4.91240
       H   -12.51963   -1.35514   -1.49920
       O   -12.28772   -0.41880   -1.72534
      H1   -12.66614   -0.33565   -2.60126
       H    -7.77219   -7.00519   -5.41844
       O    -8.67274   -6.62602   -5.33492
      H1    -8.64731   -6.23875   -4.46513

