60
frame 1 | Written by MDAnalysis XYZWriter (release 2.4.3)
       H     8.05113   -6.78788  -11.38612
       O     8.13384   -6.61297  -12.34420
      H1     7.25822   -6.91370  -12.68457
       H     9.34531   -9.60382  -10.52485
       O    10.27890   -9.49806  -10.86334
      H1    10.27595   -8.74655  -11.48652
       H     5.81224   -6.75895   -8.53008
       O     5.69105   -6.24210   -7.72851
      H1     5.15603   -6.83948   -7.20532
       H     6.22957   -8.29071  -10.07150
       O     6.75434   -7.45625   -9.94371
      H1     7.51908   -7.81707   -9.47526
       H     9.80477   -8.32337  -16.34153
       O     9.26309   -7.60585  -15.96554
      H1     8.66640   -7.43261  -16.68733
       H     6.24165   -6.23999  -14.98019
       O     5.36498   -6.60937  -14.99308
      H1     5.14074   -6.76148  -14.05494
       H     8.53396   -4.62358  -14.68780
       O     7.60244   -4.81498  -14.67169
      H1     7.12123   -4.23578  -15.29394
       H    11.24942   -7.02547  -12.79006
       O    11.33643   -7.98727  -12.80168
      H1    11.35874   -8.20263  -13.73836
       H     5.27649   -5.07124   -9.04569
       O     4.71452   -4.70754   -9.73847
      H1     3.84903   -4.66585   -9.34880
       H     6.38624   -3.38209  -10.59304
       O     6.75147   -2.94596   -9.81723
      H1     5.99491   -2.90739   -9.24367
       H     4.75761  -10.34703  -13.38818
       O     4.26705   -9.76715  -14.00456
      H1     4.87065   -9.60705  -14.76093
       H     4.18718   -4.46839  -13.15573
       O     3.30214   -4.31366  -13.54496
      H1     3.56371   -3.95998  -14.41348
       H     7.84298  -11.38474  -10.24956
       O     7.84571  -10.46147   -9.96948
      H1     7.85844  -10.55680   -9.01580
       H    10.89528   -4.72464  -14.94965
       O    10.18621   -4.82849  -15.58882
      H1     9.99102   -5.75988  -15.64002
       H     4.92091   -8.39423  -13.05404
       O     5.17551   -7.62473  -12.54368
      H1     4.38780   -7.52750  -12.01503
       H    10.52232  -10.23695  -12.56888
       O    10.33582  -10.89503  -13.24718
      H1     9.46921  -10.54971  -13.51900
       H     9.78973   -5.45019  -12.51320
       O    10.67073   -5.44792  -12.13247
      H1    10.51786   -5.84622  -11.26542
       H     6.79732   -9.24477  -15.53818
       O     6.28753   -9.83849  -16.08482
      H1     6.63556  -10.64000  -15.73049
       H     6.65788   -4.80707  -12.76845
       O     5.84746   -4.48669  -12.36823
      H1     5.75065   -5.02574  -11.56971
       H     8.46627   -8.58130  -14.79967
       O     7.99659   -9.02645  -14.07266
      H1     8.04252   -8.34683  -13.40333

