60
frame 1 | Written by MDAnalysis XYZWriter (release 2.4.3)
       H     3.97621   11.89634  -13.35982
       O     3.52016   12.39826  -12.69552
      H1     3.52706   13.29093  -13.02161
       H     4.22201   12.85652   -8.26986
       O     3.87294   13.65711   -8.68447
      H1     3.09657   13.32025   -9.21490
       H     3.19565   15.34853  -12.01134
       O     3.71207   15.10456  -12.76959
      H1     4.54790   14.79956  -12.40574
       H    -0.46598   11.87643  -11.78087
       O    -0.33481   11.99291  -12.70692
      H1    -0.34836   12.96277  -12.93297
       H    -0.58779    8.66479  -10.61613
       O    -0.97838    8.99772   -9.76935
      H1    -0.90997    8.15878   -9.24978
       H     0.31651    9.47794   -8.65095
       O     1.15081    9.35845   -8.17484
      H1     0.96760    8.68653   -7.50055
       H     0.41629   11.81665   -9.93518
       O    -0.52115   11.67478   -9.94705
      H1    -0.57701   10.70328  -10.05234
       H     4.84442   13.66384  -10.35055
       O     5.63657   13.99533  -10.84487
      H1     5.96751   13.16214  -11.19455
       H     2.67872   12.41620  -11.08368
       O     2.34814   11.87343  -10.32497
      H1     2.84854   11.05617  -10.36546
       H     2.36083   12.23117   -6.16872
       O     1.93135   11.38410   -6.21009
      H1     2.40800   10.99822   -6.93091
       H     6.68633   11.38235  -10.84844
       O     6.69878   11.66554  -11.77727
      H1     7.52256   12.15506  -11.83703
       H     6.59991   10.62501   -8.64244
       O     7.27595   10.46719   -9.33079
      H1     7.12930    9.59350   -9.69461
       H     0.93573   15.50681   -9.89386
       O     0.76274   14.90892   -9.11813
      H1    -0.14608   14.58489   -9.30299
       H     1.49654    5.53446  -10.48214
       O     1.73681    6.41933  -10.20858
      H1     1.35406    7.01305  -10.85391
       H     2.09942   10.90586  -12.95823
       O     1.99121    9.97770  -13.16874
      H1     2.92562    9.70789  -13.25163
       H     4.03016    7.94531  -13.24533
       O     4.04102    8.06387  -12.28117
      H1     4.87450    8.52070  -12.16801
       H     0.39965   13.37869   -7.44173
       O    -0.48984   13.18498   -7.17670
      H1    -0.33341   12.42668   -6.61076
       H     5.14556   11.82635   -6.82214
       O     4.89760   11.30755   -7.60729
      H1     5.07779   10.41627   -7.31380
       H     0.08625    7.51868  -12.57807
       O     0.51800    8.07622  -11.87685
      H1     0.97782    8.77655  -12.37673
       H     3.55063    8.15894   -9.85917
       O     3.76067    8.78700   -9.16120
      H1     2.89218    8.85152   -8.74807

