60
frame 1 | Written by MDAnalysis XYZWriter (release 2.4.3)
       H     3.93098  -14.28771   13.28635
       O     3.69485  -13.35795   13.31260
      H1     3.54830  -13.18207   14.24230
       H     0.46174  -14.76791   14.08844
       O     1.07910  -14.53456   13.37580
      H1     1.68792  -13.89568   13.79942
       H    -0.26676  -13.44760   12.13879
       O    -0.85933  -12.71256   11.96109
      H1    -0.45510  -12.30497   11.15427
       H     3.81956  -14.50808   18.59557
       O     4.66936  -14.96523   18.54387
      H1     5.28899  -14.29296   18.81090
       H     0.61507  -10.78881   16.06401
       O     1.15173  -10.46889   16.84606
      H1     1.54588   -9.64834   16.53219
       H     1.05273  -17.25164   19.58083
       O     0.80784  -16.52440   19.02609
      H1     1.44139  -16.68574   18.27239
       H    -0.72240  -13.40067   15.85554
       O    -0.47260  -14.35546   15.88740
      H1    -1.17143  -14.74275   16.38355
       H    -1.63345  -17.78947   16.29311
       O    -1.22685  -16.96822   16.56322
      H1    -0.30972  -17.25455   16.69755
       H    -4.26224  -15.09607   16.10003
       O    -3.79901  -15.58245   16.81120
      H1    -3.01679  -15.90500   16.37901
       H     1.30916  -13.95120   16.20420
       O     2.14856  -13.56410   15.96354
      H1     2.39128  -12.96599   16.67360
       H    -0.23011  -18.00911   13.98619
       O     0.26442  -18.80535   14.15397
      H1    -0.41197  -19.49596   14.08107
       H     0.69754  -12.53264   15.09862
       O    -0.02480  -11.93148   14.95288
      H1    -0.15309  -11.90096   13.98389
       H     2.76019  -16.49845   15.68086
       O     2.35823  -16.68389   16.52712
      H1     2.79202  -17.47818   16.84390
       H     0.19592  -11.80195   18.04699
       O    -0.13646  -12.69713   18.09619
      H1    -0.89540  -12.63200   18.63639
       H    -1.96084  -16.65027   13.54134
       O    -1.07220  -16.33333   13.72864
      H1    -0.98200  -16.45834   14.70219
       H     0.58676  -10.01888   18.49784
       O     0.23863  -10.26614   19.37318
      H1    -0.65010   -9.91670   19.28856
       H     0.43924  -16.17475   12.26729
       O     0.66870  -16.87694   11.62298
      H1     0.38584  -16.53173   10.76428
       H     2.45309  -15.96330   13.49446
       O     3.19030  -16.30821   14.04307
      H1     3.50780  -17.11812   13.58128
       H     4.41787  -11.68841   17.17469
       O     3.97774  -12.25509   17.82208
      H1     4.49398  -13.06393   17.75388
       H     5.28738  -16.27824   17.49409
       O     5.81091  -16.99404   17.13116
      H1     5.48851  -17.10447   16.25444

