60
frame 1 | Written by MDAnalysis XYZWriter (release 2.4.3)
       H     4.01090   -2.50557   -0.48218
       O     3.50456   -1.85026   -0.03090
      H1     3.99779   -1.04836   -0.12432
       H     7.62262    2.33572   -4.48562
       O     7.15480    1.50527   -4.73282
      H1     6.68016    1.20469   -3.93793
       H     4.39149   -1.77467   -4.14149
       O     3.61754   -1.21465   -4.05236
      H1     3.22781   -1.12060   -4.91634
       H     4.61288   -4.32401   -2.09251
       O     5.04548   -4.20718   -1.22411
      H1     5.94484   -3.85608   -1.46307
       H     5.88701   -0.15117   -1.75978
       O     6.35006   -0.28429   -2.56857
      H1     7.23128   -0.22448   -2.30259
       H    -1.05506   -1.31607   -3.80875
       O    -0.92501   -1.64915   -4.72852
      H1    -0.00034   -1.38909   -4.98748
       H     4.42812    2.00382   -5.92532
       O     3.89354    2.58297   -5.38631
      H1     4.51626    3.27966   -5.18997
       H     6.63027   -2.60591   -4.66853
       O     6.03959   -2.51271   -3.90570
      H1     6.35137   -1.74652   -3.38217
       H     7.88974   -1.80171   -6.55135
       O     7.54756   -2.64653   -6.25080
      H1     8.30475   -3.20849   -6.35696
       H     6.09965    1.25726   -6.28420
       O     5.49355    0.98526   -7.00942
      H1     5.45030    0.03273   -6.89769
       H     7.18902   -5.04485   -4.64851
       O     6.60372   -5.76482   -4.75394
      H1     7.09079   -6.45277   -4.27202
       H     0.98763   -0.40491   -6.59708
       O     1.38716   -0.49434   -5.70492
      H1     1.41499    0.45044   -5.39379
       H     3.94259   -5.88294   -3.28513
       O     4.06908   -5.07659   -3.77856
      H1     4.99666   -4.98599   -3.97969
       H     1.12383   -2.61753   -2.25098
       O     0.90571   -3.53944   -2.11681
      H1     1.04432   -3.61709   -1.18424
       H     1.48717   -3.47262   -5.63197
       O     1.90689   -4.32844   -5.59072
      H1     2.67561   -4.15439   -5.06916
       H     8.89506   -4.71647   -3.13617
       O     8.75515   -4.21221   -3.95898
      H1     8.63318   -3.31699   -3.63288
       H     6.95879   -2.83347   -2.44280
       O     7.40860   -2.99019   -1.60119
      H1     7.44655   -2.11624   -1.22715
       H     2.45674   -1.15688   -2.69677
       O     1.79205   -0.84845   -2.05084
      H1     2.21566   -0.96917   -1.19718
       H     5.63624    0.09090    0.56728
       O     5.08851    0.28825   -0.19594
      H1     4.59815    1.09081    0.00845
       H     3.28338    0.65826   -2.44330
       O     3.61951    1.53972   -2.50662
      H1     4.31438    1.46654   -3.19811

