60
frame 0 | Written by MDAnalysis XYZWriter (release 2.4.3)
       H   -14.53614   11.12754   11.92341
       O   -14.27409   10.82871   11.07675
      H1   -13.56390   11.45000   10.79978
       H   -15.94145   13.47206   10.77778
       O   -15.40552   13.57141    9.98714
      H1   -14.73494   12.88628   10.08909
       H   -18.31552   15.46315   10.71501
       O   -18.77582   15.03654    9.98117
      H1   -18.05364   14.64927    9.48563
       H   -18.23734    9.53561   15.96250
       O   -17.51062   10.09592   15.62865
      H1   -17.92294   10.86873   15.18799
       H   -17.79741    9.49172   12.15170
       O   -17.56787    8.90234   12.89450
      H1   -18.40512    8.75462   13.36685
       H   -16.25340   10.21369   13.85942
       O   -15.50596   10.78897   13.70008
      H1   -15.17197   11.00113   14.58271
       H   -17.16429    7.07670   10.19113
       O   -17.96256    7.27206   10.66004
      H1   -17.70638    7.58789   11.56506
       H   -16.56767   13.71463   12.98410
       O   -16.60133   12.88392   12.49402
      H1   -16.22695   12.27038   13.13896
       H   -18.03866   11.79056   11.70413
       O   -18.35479   11.00808   11.24124
      H1   -17.90390   11.01291   10.36624
       H   -17.84436   13.66256   16.49418
       O   -17.00721   14.01675   16.14304
      H1   -16.35297   13.33120   16.28181
       H   -16.82660   14.96033   14.60886
       O   -16.68394   15.37473   13.75276
      H1   -15.91665   15.95059   13.88468
       H   -17.88011   12.69716    8.18359
       O   -17.45823   13.55211    7.98266
      H1   -16.49716   13.35922    8.06995
       H   -12.22647    9.10836    9.89265
       O   -13.06573    8.93732    9.46974
      H1   -13.67850    9.47493   10.01163
       H   -14.19495   13.03408   14.74181
       O   -13.52243   13.00584   14.04998
      H1   -13.85248   13.53215   13.32334
       H   -14.40871   16.16717   11.81226
       O   -13.92409   15.42264   11.45245
      H1   -14.60062   14.86493   11.04143
       H   -14.19467    8.06781   14.69604
       O   -15.03294    7.79294   14.26708
      H1   -15.37564    8.56751   13.82950
       H   -16.86801   16.26552   12.18940
       O   -16.75101   16.44174   11.22875
      H1   -16.85525   17.41698   11.13710
       H   -18.69005   14.35958    6.89541
       O   -19.22204   14.81483    6.21579
      H1   -19.33674   15.71528    6.54456
       H   -17.48311   10.46603    6.80726
       O   -16.81676   10.08355    7.41517
      H1   -17.38484    9.57187    8.02773
       H   -15.76960   11.46221    6.94152
       O   -15.19142   12.22766    6.82414
      H1   -15.26779   12.45616    5.88146

