60
frame 1 | Written by MDAnalysis XYZWriter (release 2.4.3)
       H     3.76217    3.22104  -18.81387
       O     3.12317    3.87884  -18.53407
      H1     3.38035    4.05506  -17.64299
       H     4.37621   -0.53394  -16.02360
       O     3.87348   -0.22260  -15.23208
      H1     3.02141    0.09260  -15.58860
       H     3.95865    2.79830  -13.78272
       O     3.08685    3.06416  -14.01356
      H1     2.97255    3.74941  -13.37903
       H     0.06004   -2.64683  -16.92569
       O     0.98483   -2.36088  -16.94445
      H1     1.46678   -3.12600  -17.32782
       H     8.52709    0.22648  -16.84053
       O     7.65790    0.47913  -16.53485
      H1     7.67268    0.23827  -15.60511
       H     8.53396   -4.62358  -14.68780
       O     7.60244   -4.81498  -14.67169
      H1     7.12123   -4.23578  -15.29394
       H     1.90244    1.96148  -18.00616
       O     1.16014    2.23015  -17.40915
      H1     1.26783    3.17528  -17.36913
       H     0.84270   -0.37023  -15.94756
       O     1.17848    0.37806  -15.41812
      H1     1.14518    1.12571  -16.06139
       H     4.91948   -0.73379  -12.13724
       O     5.72506   -0.34677  -11.71787
      H1     5.67545   -0.57211  -10.78475
       H     4.18718   -4.46839  -13.15573
       O     3.30214   -4.31366  -13.54496
      H1     3.56371   -3.95998  -14.41348
       H     2.99335   -2.71558  -16.33489
       O     3.45550   -3.53559  -16.25188
      H1     4.38002   -3.24607  -16.20212
       H     5.76313   -0.39671  -17.59177
       O     4.88987   -0.52009  -17.98064
      H1     5.03855   -1.32161  -18.54198
       H     0.92028   -1.54125  -18.37242
       O     0.74133   -0.90973  -19.09254
      H1    -0.25142   -0.87013  -19.06729
       H     6.47618   -2.37791  -15.59098
       O     6.04473   -3.01519  -16.18002
      H1     6.50631   -2.79752  -16.99711
       H     6.29642    3.29775  -16.91404
       O     5.72649    3.00337  -16.17468
      H1     6.21256    2.35650  -15.64434
       H     9.52108   -1.10736  -15.46166
       O     8.80679   -1.61645  -15.04989
      H1     8.98687   -1.53309  -14.11155
       H     3.94449   -2.67764  -12.76954
       O     3.69141   -1.74613  -12.89675
      H1     3.49178   -1.68035  -13.84464
       H     8.27721   -1.76953  -18.63209
       O     7.65980   -2.54070  -18.53573
      H1     8.18911   -3.29556  -18.78576
       H     3.17906    4.16523  -15.35464
       O     3.23005    5.04957  -15.77409
      H1     2.32408    5.25123  -16.02666
       H     5.05244    1.02509  -13.83990
       O     5.73749    1.58645  -13.47264
      H1     6.01684    1.05612  -12.69413

