60
frame 1 | Written by MDAnalysis XYZWriter (release 2.4.3)
       H     8.93571    0.49770  -19.19902
       O     9.30416   -0.31175  -18.80144
      H1    10.14148   -0.01343  -18.38482
       H    12.65802   -2.52126  -17.78600
       O    12.25333   -2.39672  -18.65352
      H1    11.37628   -2.78274  -18.50093
       H    17.22560    0.47293  -17.12346
       O    17.56634    0.38183  -16.20123
      H1    18.25628   -0.29067  -16.30382
       H    12.80006   -2.82879  -15.34069
       O    13.25283   -3.00664  -16.17247
      H1    13.42494   -3.95259  -16.12158
       H    12.40900    1.55069  -17.52463
       O    12.37395    0.66172  -17.82498
      H1    11.79877    0.17599  -17.21612
       H    19.17729   -2.61434  -15.99799
       O    18.88223   -3.49185  -15.88600
      H1    18.20433   -3.53780  -16.54616
       H    10.42968    0.96761  -15.67128
       O    10.50317    0.09253  -16.11319
      H1    11.29689   -0.26386  -15.71400
       H    14.79819   -2.90258  -14.93062
       O    15.52131   -3.16703  -14.33645
      H1    15.41717   -4.14037  -14.30329
       H    18.24538    3.07075  -14.97948
       O    18.27441    3.06519  -15.92827
      H1    17.87173    2.21058  -16.15310
       H    12.80674   -4.65311  -13.41604
       O    12.19549   -4.04725  -13.86194
      H1    11.47061   -3.90929  -13.30027
       H    14.22896   -0.91419  -18.64482
       O    15.19827   -0.99901  -18.62386
      H1    15.35883   -1.68835  -17.95148
       H    14.81602    3.00807  -16.60068
       O    15.20041    2.82450  -15.73642
      H1    16.10371    3.08481  -15.94491
       H    15.07562   -6.26048  -16.99472
       O    15.70845   -5.78456  -17.53091
      H1    16.48009   -5.80729  -16.97221
       H    12.71331    3.38749  -18.63014
       O    12.94962    3.25653  -17.70362
      H1    12.46449    3.92397  -17.22671
       H    10.08059   -4.17615  -17.37716
       O    10.26639   -4.21666  -18.32496
      H1    10.86810   -4.96312  -18.41866
       H    17.15207   -3.17917  -18.61671
       O    16.80031   -3.04680  -17.72510
      H1    16.19296   -3.79372  -17.61160
       H    13.30610   -0.41772  -14.03055
       O    12.48900   -0.93040  -14.21277
      H1    12.10589   -1.02438  -13.33850
       H    16.35482    0.19009  -18.85961
       O    17.16661    0.72097  -18.88685
      H1    17.92705    0.06246  -18.90248
       H    16.90368   -0.46896  -14.81275
       O    16.57333   -0.67870  -13.91187
      H1    15.97237   -1.43742  -14.03697
       H    14.51751    1.83613  -14.09781
       O    14.47690    1.06905  -13.49792
      H1    15.21007    0.51386  -13.78769

