60
frame 1 | Written by MDAnalysis XYZWriter (release 2.4.3)
       H     2.06965  -11.45950   -7.91402
       O     2.22929  -10.62928   -7.42064
      H1     2.95964  -10.80623   -6.81203
       H     0.80133   -7.49993   -3.15280
       O     0.85649   -8.41978   -3.42904
      H1     1.19698   -8.35837   -4.34262
       H    -2.17239   -8.79248   -3.26537
       O    -1.78296   -8.94348   -4.12601
      H1    -0.88679   -8.62710   -4.04414
       H    -0.19721  -11.90120   -2.17821
       O    -0.38796  -11.67640   -1.25899
      H1    -1.06521  -10.96682   -1.35084
       H    -4.29972  -12.59719   -3.63446
       O    -5.03550  -12.29748   -4.18648
      H1    -5.19633  -13.05698   -4.76110
       H     0.97549  -14.67770   -0.48151
       O     0.43434  -14.17076    0.11852
      H1     0.39466  -13.31475   -0.30362
       H    -2.70270  -12.46993   -1.77648
       O    -3.10574  -12.98283   -2.50460
      H1    -2.53937  -13.73060   -2.67391
       H    -3.18524   -9.86058   -1.18439
       O    -2.32587   -9.50794   -1.41775
      H1    -2.08895   -8.87825   -0.74368
       H    -2.02721  -15.85632   -2.01867
       O    -1.93335  -15.48709   -2.90976
      H1    -2.76915  -15.70161   -3.34830
       H     2.50561  -12.39778   -4.07933
       O     1.56199  -12.55372   -3.96012
      H1     1.55116  -13.48876   -4.07878
       H     0.01517  -13.25153   -8.21878
       O     0.78165  -12.80108   -8.51813
      H1     0.44389  -11.96434   -8.93104
       H     4.14728  -12.39706   -1.07355
       O     4.11195  -12.54195   -2.03297
      H1     3.80085  -11.73522   -2.44112
       H     0.09634  -11.66983   -4.73368
       O    -0.87357  -11.59121   -4.80219
      H1    -1.03354  -10.64863   -4.67458
       H    -0.31447  -14.19448   -5.81829
       O    -1.28056  -14.09066   -5.81450
      H1    -1.43254  -13.32798   -5.22182
       H    -2.54425  -11.04735   -7.37979
       O    -1.59487  -11.10418   -7.43260
      H1    -1.27189  -11.45807   -6.60010
       H     3.82961   -9.12586   -2.54065
       O     3.29449   -9.90432   -2.83631
      H1     2.43431   -9.52885   -3.08238
       H     0.90932  -10.42817   -1.07691
       O     1.61826  -10.03217   -0.55443
      H1     2.20627   -9.77698   -1.27102
       H     1.94564  -15.83317   -5.04408
       O     1.13407  -15.44228   -5.34508
      H1     0.42726  -16.00554   -5.03859
       H    -0.53030   -8.21679   -8.52945
       O    -0.08830   -8.68040   -7.85993
      H1    -0.56246   -9.52264   -7.74468
       H     1.43296   -7.03569   -5.86903
       O     1.69155   -7.99130   -6.00232
      H1     1.11998   -8.34744   -6.65632

