60
frame 1 | Written by MDAnalysis XYZWriter (release 2.4.3)
       H   -12.53051    4.41206  -13.31265
       O   -13.29131    3.98410  -12.88402
      H1   -12.95739    3.65861  -12.02828
       H   -13.63007    1.71227  -17.17681
       O   -14.40668    2.17072  -17.56706
      H1   -14.79554    1.46887  -18.12544
       H    -9.28789    4.70760  -17.12298
       O    -9.29943    5.35391  -16.43867
      H1    -9.21876    6.20280  -16.86488
       H   -16.43216    1.95920  -13.44393
       O   -17.08360    1.42287  -12.99247
      H1   -16.71335    0.54406  -13.27715
       H   -15.26711    2.53092  -15.71765
       O   -14.97267    2.54085  -14.76424
      H1   -15.12216    3.45269  -14.49322
       H   -12.04697    4.80533  -17.61761
       O   -12.87316    5.29901  -17.83288
      H1   -12.78473    5.56664  -18.74602
       H   -10.52533   -0.67255  -15.09824
       O   -11.05432   -0.79277  -15.90161
      H1   -11.68130   -0.06339  -15.89243
       H   -12.04661   -3.44941  -15.27174
       O   -12.30628   -3.14370  -16.13693
      H1   -11.86206   -2.27547  -16.18826
       H   -10.82066    5.33352  -15.25823
       O   -11.22977    5.18911  -14.39493
      H1   -11.59096    6.08008  -14.19647
       H   -10.37779   -1.08123  -19.22124
       O   -10.82552   -0.43335  -18.64897
      H1   -10.28947   -0.48850  -17.83224
       H   -13.08689    0.49668  -12.72244
       O   -13.68540    1.00921  -12.15019
      H1   -13.98612    1.65360  -12.79529
       H   -10.48228    0.20994  -13.14441
       O    -9.90911   -0.46214  -13.47577
      H1    -9.16942   -0.47301  -12.85753
       H   -14.84782   -3.75258  -13.86945
       O   -14.36760   -2.95274  -14.09845
      H1   -14.00491   -3.14821  -14.97836
       H   -14.76674    4.86677  -17.23407
       O   -15.71545    4.95165  -17.11637
      H1   -15.98266    4.09228  -17.48914
       H   -17.77508   -0.55199  -17.02232
       O   -17.87123   -0.98518  -16.13859
      H1   -17.44903   -0.33223  -15.57470
       H   -13.47336    1.70296  -15.07779
       O   -12.59670    1.35635  -15.25030
      H1   -11.98612    2.03407  -14.93514
       H   -16.12765    5.03091  -15.42225
       O   -16.44578    4.79433  -14.54070
      H1   -16.38044    5.57626  -14.00909
       H   -17.41926    2.44667  -18.05827
       O   -17.27194    2.26148  -17.10746
      H1   -18.07258    2.52979  -16.67355
       H   -10.10958    3.28660  -14.02811
       O   -10.03103    2.33810  -14.17464
      H1    -9.14033    2.20869  -14.51797
       H   -16.02437   -2.01954  -13.94047
       O   -16.68996   -1.52800  -13.43237
      H1   -17.36153   -2.22258  -13.22833

