60
frame 1 | Written by MDAnalysis XYZWriter (release 2.4.3)
       H    13.04880    9.22708   -3.87306
       O    13.37630    9.51150   -2.98127
      H1    13.98543   10.24544   -3.13730
       H    18.83082   12.36531   -8.56103
       O    17.99733   12.79055   -8.51445
      H1    18.17914   13.68702   -8.89823
       H    18.82204   14.47886   -3.68079
       O    17.91015   14.15758   -3.68421
      H1    17.62305   14.22915   -2.73712
       H    17.37401    9.24143    0.80604
       O    16.63879    9.74427    0.45790
      H1    16.01289    9.78512    1.20426
       H    15.36455    9.45420   -5.21473
       O    15.53630   10.17775   -5.80715
      H1    16.46204    9.97710   -6.07046
       H    17.33881    9.74628   -2.87680
       O    17.96508   10.25644   -2.34309
      H1    18.48098   10.70561   -3.02325
       H    13.16384   13.11348   -4.44237
       O    12.40377   13.55540   -4.05386
      H1    12.83571   14.35319   -3.74635
       H    16.94464   10.64723   -8.86181
       O    16.74401    9.68484   -8.77481
      H1    17.25099    9.40928   -7.98842
       H    16.05317   11.15183   -1.87021
       O    15.18526   11.35123   -2.28486
      H1    14.63952   11.76357   -1.62233
       H    15.72800    8.37905   -0.29276
       O    15.23928    7.58100   -0.55459
      H1    15.88275    6.86916   -0.36582
       H    18.09235   11.79485    3.33667
       O    18.76312   11.27816    2.85681
      H1    18.52988   11.45564    1.94853
       H    16.46654   13.54840   -5.61385
       O    16.78452   14.01329   -6.39060
      H1    17.10266   13.32957   -6.98788
       H    18.21953    5.58995   -2.54202
       O    17.94563    6.47407   -2.82464
      H1    18.38932    7.10601   -2.23756
       H    15.14505   11.77403   -4.92605
       O    14.88899   12.68554   -4.70528
      H1    15.01533   12.70321   -3.74431
       H    16.71880   15.90317   -5.35237
       O    16.36373   16.43448   -4.62845
      H1    17.08648   16.39909   -3.99876
       H    15.02667    8.45615   -3.33327
       O    15.95540    8.50269   -3.60699
      H1    16.22692    7.58119   -3.47204
       H    17.98616    8.17662   -6.77404
       O    18.11790    9.06690   -6.43003
      H1    18.95559    9.28604   -6.83277
       H    16.67347   14.91377   -0.77258
       O    17.47390   14.52036   -1.07228
      H1    17.58367   13.71758   -0.53059
       H    14.16334   12.45116    1.98383
       O    14.53948   11.86379    1.33415
      H1    13.74900   11.55038    0.83104
       H    18.70397   11.97413   -0.57775
       O    18.13713   12.07375    0.20148
      H1    17.40656   11.44157    0.08843

