60
frame 1 | Written by MDAnalysis XYZWriter (release 2.4.3)
       H     3.93098  -14.28771   13.28635
       O     3.69485  -13.35795   13.31260
      H1     3.54830  -13.18207   14.24230
       H     0.46174  -14.76791   14.08844
       O     1.07910  -14.53456   13.37580
      H1     1.68792  -13.89568   13.79942
       H    -0.26676  -13.44760   12.13879
       O    -0.85933  -12.71256   11.96109
      H1    -0.45510  -12.30497   11.15427
       H    -4.79493  -11.84670   15.89043
       O    -4.32452  -12.53073   15.42827
      H1    -4.04346  -12.05449   14.64846
       H     0.61507  -10.78881   16.06401
       O     1.15173  -10.46889   16.84606
      H1     1.54588   -9.64834   16.53219
       H     1.05273  -17.25164   19.58083
       O     0.80784  -16.52440   19.02609
      H1     1.44139  -16.68574   18.27239
       H    -0.72240  -13.40067   15.85554
       O    -0.47260  -14.35546   15.88740
      H1    -1.17143  -14.74275   16.38355
       H    -1.63345  -17.78947   16.29311
       O    -1.22685  -16.96822   16.56322
      H1    -0.30972  -17.25455   16.69755
       H    -4.26224  -15.09607   16.10003
       O    -3.79901  -15.58245   16.81120
      H1    -3.01679  -15.90500   16.37901
       H    -4.32284  -11.45332   12.29364
       O    -3.63614  -12.09217   12.45982
      H1    -2.81356  -11.57285   12.52012
       H     1.30916  -13.95120   16.20420
       O     2.14856  -13.56410   15.96354
      H1     2.39128  -12.96599   16.67360
       H    -2.31091  -10.81179   18.38379
       O    -2.46072   -9.88410   18.29533
      H1    -2.43523   -9.72928   17.33795
       H    -0.23011  -18.00911   13.98619
       O     0.26442  -18.80535   14.15397
      H1    -0.41197  -19.49596   14.08107
       H     0.69754  -12.53264   15.09862
       O    -0.02480  -11.93148   14.95288
      H1    -0.15309  -11.90096   13.98389
       H    -2.58160   -8.85716   15.29842
       O    -2.15901   -9.66154   15.59604
      H1    -1.68899   -9.99640   14.83864
       H     2.76019  -16.49845   15.68086
       O     2.35823  -16.68389   16.52712
      H1     2.79202  -17.47818   16.84390
       H     0.19592  -11.80195   18.04699
       O    -0.13646  -12.69713   18.09619
      H1    -0.89540  -12.63200   18.63639
       H    -1.96084  -16.65027   13.54134
       O    -1.07220  -16.33333   13.72864
      H1    -0.98200  -16.45834   14.70219
       H     0.43924  -16.17475   12.26729
       O     0.66870  -16.87694   11.62298
      H1     0.38584  -16.53173   10.76428
       H     2.45309  -15.96330   13.49446
       O     3.19030  -16.30821   14.04307
      H1     3.50780  -17.11812   13.58128

