60
frame 1 | Written by MDAnalysis XYZWriter (release 2.4.3)
       H   -12.60713    0.24517   10.07842
       O   -11.99973    0.02123   10.79294
      H1   -12.48838    0.32777   11.58318
       H   -13.85977   -0.97319   15.86969
       O   -13.04180   -0.44888   15.99202
      H1   -12.37962   -1.12159   16.16926
       H    -7.28861   -2.03390   14.46861
       O    -7.41657   -1.88370   13.52859
      H1    -8.20341   -1.30962   13.46090
       H   -11.41735   -3.21148   12.48090
       O   -10.98478   -2.47197   12.05389
      H1   -11.15695   -2.60329   11.08034
       H   -11.10344    2.03684   16.54993
       O   -11.71085    1.80704   15.83082
      H1   -12.27812    1.09274   16.13705
       H   -12.34265   -1.41642   12.78591
       O   -13.00962   -0.78677   13.05093
      H1   -12.80433   -0.57300   13.97158
       H   -10.74260    0.07052   13.60123
       O   -10.23441   -0.66603   13.94069
      H1   -10.28133   -1.35333   13.26153
       H   -12.90636   -1.57519   18.90587
       O   -13.66941   -2.10315   18.59821
      H1   -13.50050   -2.98841   18.98273
       H   -15.09356    2.13044   13.37409
       O   -14.62516    1.85021   14.19835
      H1   -13.89197    1.29044   13.95059
       H    -9.27073   -4.73529   13.99222
       O    -9.66688   -4.52169   14.82539
      H1    -9.31341   -5.20123   15.42306
       H   -11.69998   -6.51672   18.02884
       O   -11.32010   -6.09294   17.27583
      H1   -10.37310   -6.00933   17.52343
       H    -7.25419   -1.65967   16.98930
       O    -6.84259   -1.18685   16.24297
      H1    -7.15277   -0.30310   16.41734
       H    -9.95691    0.82476   18.23131
       O    -9.69942    1.59903   17.69316
      H1    -8.75445    1.49431   17.50826
       H   -14.80482   -2.62119   17.19771
       O   -15.27072   -2.37360   16.35752
      H1   -15.16911   -3.17250   15.85237
       H   -10.72595   -1.52032   15.56793
       O   -10.79965   -1.96806   16.38562
      H1   -11.20677   -2.83904   16.19539
       H   -12.04704   -4.60909   14.02615
       O   -12.22557   -4.74983   13.09500
      H1   -13.08768   -4.39977   12.95853
       H    -7.84344    2.18840   13.48624
       O    -8.02487    1.23793   13.35015
      H1    -7.70689    1.07153   12.44984
       H   -13.52614   -4.32086   15.89591
       O   -12.56841   -4.19013   15.83644
      H1   -12.23430   -4.73310   16.56112
       H    -8.46918   -3.10042   18.50069
       O    -8.77603   -2.22359   18.24308
      H1    -9.42239   -2.43819   17.56416
       H   -11.03154    2.06835   14.06411
       O   -10.89603    1.99297   13.11369
      H1    -9.94427    1.80163   13.10661

