60
frame 1 | Written by MDAnalysis XYZWriter (release 2.4.3)
       H   -15.88766   -5.52891   16.21063
       O   -15.13892   -5.22122   15.66260
      H1   -15.47094   -5.42034   14.76052
       H   -16.25681   -5.10454   18.58166
       O   -16.46116   -4.34743   19.11613
      H1   -16.91199   -3.78371   18.47388
       H   -16.98047   -2.50650   16.53089
       O   -17.78075   -2.52928   17.07315
      H1   -18.44263   -2.09673   16.55063
       H   -11.60012   -8.77090   15.38018
       O   -11.96665   -7.93063   15.06349
      H1   -11.51414   -7.22628   15.57131
       H   -19.22653   -6.53768   12.26253
       O   -18.62003   -6.93416   12.88240
      H1   -19.15720   -7.61738   13.24973
       H   -12.90636   -1.57519   18.90587
       O   -13.66941   -2.10315   18.59821
      H1   -13.50050   -2.98841   18.98273
       H   -12.04027   -9.79729   17.58953
       O   -11.50833   -9.56956   18.35002
      H1   -11.78688  -10.23802   18.97714
       H   -16.98908   -6.97494   18.34639
       O   -16.80887   -6.64918   17.45524
      H1   -17.05274   -7.43165   16.93959
       H   -11.69998   -6.51672   18.02884
       O   -11.32010   -6.09294   17.27583
      H1   -10.37310   -6.00933   17.52343
       H   -13.99501   -8.71297   18.51732
       O   -14.70630   -9.34530   18.42880
      H1   -14.82067   -9.72433   19.29692
       H   -14.80482   -2.62119   17.19771
       O   -15.27072   -2.37360   16.35752
      H1   -15.16911   -3.17250   15.85237
       H   -16.01726  -10.62036   14.15104
       O   -16.65230  -10.53605   13.40777
      H1   -16.09050  -10.69772   12.65098
       H   -16.77173   -7.41144   12.71991
       O   -15.84913   -7.20779   12.97582
      H1   -15.61809   -7.86909   13.62607
       H   -17.92426   -5.91471   15.88959
       O   -18.08347   -5.53058   15.01824
      H1   -18.32875   -6.27553   14.47572
       H   -13.52614   -4.32086   15.89591
       O   -12.56841   -4.19013   15.83644
      H1   -12.23430   -4.73310   16.56112
       H   -14.46429  -11.62044   15.94056
       O   -15.30971  -11.15739   15.99777
      H1   -15.06991  -10.51618   16.68284
       H   -18.75954   -9.33569   16.55615
       O   -18.58660   -8.87399   15.72068
      H1   -18.90802   -9.51503   15.09556
       H   -18.52832   -2.51950   13.48817
       O   -19.01523   -3.35419   13.39006
      H1   -18.50174   -4.03435   13.85308
       H   -17.20110   -0.21407   19.09292
       O   -18.12272   -0.41592   18.83564
      H1   -18.03776   -1.21376   18.28093
       H   -14.84651   -7.27566   15.67591
       O   -14.49733   -8.12944   15.31400
      H1   -13.57428   -7.94162   15.22901

