60
frame 1 | Written by MDAnalysis XYZWriter (release 2.4.3)
       H    -3.99896   17.89849  -12.63040
       O    -3.84154   17.12686  -12.05806
      H1    -4.41776   17.29751  -11.30455
       H    -8.32202   14.14858  -10.22448
       O    -7.91578   13.41331  -10.69012
      H1    -7.75132   13.82610  -11.54443
       H    -7.96558   16.83368  -15.00659
       O    -7.72225   17.09151  -14.14421
      H1    -8.39434   17.76263  -13.90983
       H    -6.90126   14.02781  -13.32046
       O    -7.82358   14.26265  -13.39828
      H1    -7.79643   15.23465  -13.46438
       H   -11.44063   15.82020  -15.13403
       O   -10.94946   14.99781  -15.07502
      H1   -10.08008   15.17018  -15.47372
       H    -6.15833   17.63938  -16.68430
       O    -6.78146   16.97342  -17.02206
      H1    -6.31078   16.14079  -17.03584
       H    -6.25130   19.15697   -9.29772
       O    -6.36858   18.40277   -9.87654
      H1    -6.12611   17.64976   -9.32606
       H   -11.65883   14.32307   -9.23400
       O   -11.55733   15.21309   -8.86440
      H1   -10.59745   15.24847   -8.81207
       H   -13.04869   14.91289  -11.27948
       O   -13.98977   14.87466  -11.00720
      H1   -14.46209   14.54594  -11.79433
       H    -9.73503   18.32273  -10.66926
       O   -10.39433   17.69467  -10.92434
      H1   -11.12498   17.98185  -10.40165
       H   -15.62030   17.90102  -13.27226
       O   -16.58084   17.93080  -13.25203
      H1   -16.74817   18.44440  -12.46304
       H    -8.85940   13.80412  -16.46461
       O    -8.49002   14.67109  -16.25975
      H1    -7.88191   14.49314  -15.51882
       H   -13.20550   17.50754  -13.24902
       O   -13.88144   17.60102  -12.59780
      H1   -13.78603   16.78891  -12.06066
       H    -9.89504   18.77121  -12.78742
       O   -10.05316   18.78518  -13.71965
      H1   -10.40384   17.94365  -13.91444
       H    -9.35380   16.40044   -9.99878
       O    -8.99019   15.71981   -9.42867
      H1    -8.32966   16.22136   -8.93561
       H   -10.48370   17.08422  -16.77682
       O    -9.68322   17.30064  -16.33006
      H1    -9.02555   16.70389  -16.76211
       H   -13.77732   16.69619   -9.79726
       O   -13.17584   17.30212   -9.36711
      H1   -12.41903   16.75798   -9.10109
       H   -12.27990   18.12305  -15.16013
       O   -12.46807   17.24295  -14.79037
      H1   -13.17336   16.89847  -15.33727
       H   -11.01273   16.16484  -12.31173
       O   -11.46305   15.28151  -12.31058
      H1   -11.24852   15.05072  -13.23083
       H    -9.29858   11.50812  -12.74668
       O    -9.88481   12.22847  -12.47939
      H1    -9.32798   12.99982  -12.47357

