60
frame 1 | Written by MDAnalysis XYZWriter (release 2.4.3)
       H    16.40112   -0.16851  -10.22491
       O    16.02491    0.62634   -9.80088
      H1    15.05443    0.50718   -9.86385
       H    15.36558    4.50780   -9.69530
       O    15.24693    4.91911  -10.55526
      H1    15.39515    4.13445  -11.09237
       H    17.22560    0.47293  -17.12346
       O    17.56634    0.38183  -16.20123
      H1    18.25628   -0.29067  -16.30382
       H    10.82224    2.06985  -12.80405
       O    11.62383    2.46602  -13.16138
      H1    12.36728    1.90859  -12.82479
       H    14.64341    4.23381  -14.39115
       O    13.92647    4.39408  -13.78413
      H1    13.65864    5.29747  -14.03748
       H    10.42968    0.96761  -15.67128
       O    10.50317    0.09253  -16.11319
      H1    11.29689   -0.26386  -15.71400
       H    14.79819   -2.90258  -14.93062
       O    15.52131   -3.16703  -14.33645
      H1    15.41717   -4.14037  -14.30329
       H    18.24538    3.07075  -14.97948
       O    18.27441    3.06519  -15.92827
      H1    17.87173    2.21058  -16.15310
       H    13.73238   -2.79203  -11.36872
       O    14.57644   -3.20664  -11.24549
      H1    15.16102   -2.44794  -11.16484
       H    14.81602    3.00807  -16.60068
       O    15.20041    2.82450  -15.73642
      H1    16.10371    3.08481  -15.94491
       H    13.30610   -0.41772  -14.03055
       O    12.48900   -0.93040  -14.21277
      H1    12.10589   -1.02438  -13.33850
       H    16.22631    1.83041  -11.16709
       O    16.10077    2.55165  -11.77969
      H1    15.32375    2.19022  -12.25463
       H    17.00488   -1.19485  -12.23186
       O    16.97028   -1.48792  -11.29562
      H1    17.77065   -2.02261  -11.18198
       H    16.90368   -0.46896  -14.81275
       O    16.57333   -0.67870  -13.91187
      H1    15.97237   -1.43742  -14.03697
       H    11.45805   -2.02298  -10.99327
       O    12.17282   -1.51435  -11.34494
      H1    12.32279   -0.77399  -10.72603
       H     9.36877    0.16119  -11.67082
       O    10.12543    0.68266  -11.35809
      H1    10.83722    0.08130  -11.52970
       H    12.18258    1.08394   -9.44622
       O    12.93660    0.48489   -9.61899
      H1    13.06394    0.00741   -8.76162
       H    12.55449    4.57351  -15.11742
       O    11.82033    4.46467  -15.74748
      H1    11.44843    3.61302  -15.53927
       H    19.04774    2.02347  -12.98451
       O    18.51870    2.80932  -13.17824
      H1    17.72655    2.64729  -12.63858
       H    14.51751    1.83613  -14.09781
       O    14.47690    1.06905  -13.49792
      H1    15.21007    0.51386  -13.78769

