60
frame 1 | Written by MDAnalysis XYZWriter (release 2.4.3)
       H    11.94467   12.36569  -17.73705
       O    12.02368   13.19163  -18.21099
      H1    11.76518   12.93344  -19.08596
       H    15.25550   18.13249  -13.94139
       O    14.78964   18.62783  -14.61021
      H1    14.23775   17.96029  -15.04406
       H     8.85698   14.45086  -16.18405
       O     9.73660   14.74498  -15.93545
      H1     9.57372   15.40217  -15.24761
       H    11.62327   17.03534  -16.10631
       O    11.82376   16.58111  -16.92848
      H1    11.21640   15.84573  -16.91351
       H    12.55814   17.41079  -18.41124
       O    12.99795   18.10681  -18.90548
      H1    12.78819   18.92806  -18.45223
       H    16.28420   17.67206  -17.93496
       O    15.73366   18.25137  -18.46693
      H1    14.80828   17.96909  -18.32484
       H    15.94383   17.72628  -11.53011
       O    15.70717   18.48483  -10.98998
      H1    14.83156   18.24293  -10.69535
       H    17.78918   16.39159  -16.26956
       O    16.95131   16.71706  -15.82250
      H1    17.36426   17.19097  -15.06807
       H     6.68179   18.67536  -19.30511
       O     6.83030   18.88558  -18.38414
      H1     7.79340   18.86863  -18.29567
       H    13.17249   15.90193  -16.07172
       O    13.78712   15.64361  -15.37136
      H1    14.56240   15.43674  -15.82277
       H    10.70620   13.74983  -14.57612
       O    11.11041   13.72601  -13.71372
      H1    11.89936   13.18952  -13.86904
       H    17.77669   12.21451  -16.61959
       O    17.92730   13.15340  -16.46334
      H1    17.42025   13.34569  -15.66199
       H    12.71117   18.90815  -14.07493
       O    11.77332   18.99625  -13.87486
      H1    11.53486   18.06384  -13.81258
       H     6.32704   17.43163  -17.46162
       O     6.00139   16.59923  -17.16752
      H1     6.65196   16.33864  -16.48634
       H    11.01862   15.62492  -13.72606
       O    10.67115   16.49448  -13.80068
      H1    10.10047   16.60781  -13.01623
       H    15.20822   14.84755  -19.21873
       O    14.71930   14.82251  -18.40197
      H1    13.85240   14.56537  -18.67381
       H    15.06830   12.79822  -18.08632
       O    15.48862   11.95844  -17.86177
      H1    16.14086   11.94081  -18.57957
       H    17.62888   14.43210  -13.62573
       O    16.94465   14.19982  -14.29308
      H1    16.87575   14.98943  -14.88929
       H     7.25401   17.11380  -14.20658
       O     7.68726   16.38493  -14.68699
      H1     7.43612   15.61746  -14.14388
       H    16.00266   15.45080  -13.35060
       O    15.35824   16.11962  -13.14968
      H1    14.67933   16.01394  -13.82537

