60
frame 1 | Written by MDAnalysis XYZWriter (release 2.4.3)
       H   -15.78981    8.23613   10.30028
       O   -15.10731    8.90989   10.42443
      H1   -14.30571    8.32531   10.34451
       H   -11.20210   12.93300   13.82931
       O   -10.56735   13.63557   13.89452
      H1   -10.77678   14.11611   14.69692
       H   -15.90251   11.96748   11.44076
       O   -15.59438   11.88076   10.53621
      H1   -15.20163   11.01855   10.56246
       H   -14.02896   12.47942    9.81489
       O   -13.25083   13.03044    9.76712
      H1   -13.14452   13.20580    8.81307
       H   -13.93581   12.43471    6.94860
       O   -12.99789   12.64311    7.04000
      H1   -12.58043   11.80707    6.84535
       H   -15.14675   16.35757    7.85271
       O   -14.81616   16.00985    8.69533
      H1   -15.57989   15.58702    9.05781
       H    -9.87813   17.28954    9.34794
       O    -9.92336   16.36344    9.05991
      H1   -10.14723   15.92733    9.89526
       H   -15.66209   12.36935   13.59305
       O   -16.45941   11.94487   13.21939
      H1   -16.27013   10.98724   13.35777
       H   -18.36854   11.54563   10.98382
       O   -18.26661   10.90392   10.30037
      H1   -17.28062   10.89073   10.19181
       H   -11.51625   12.56068   10.38252
       O   -10.62948   12.38254   10.05071
      H1   -10.65611   12.77404    9.18250
       H   -10.68348   10.14483   10.36073
       O   -10.38474    9.33343    9.97931
      H1   -10.23503    9.52817    9.02008
       H   -12.92171   16.15871    8.17238
       O   -12.23564   16.53800    7.60671
      H1   -11.46626   16.46582    8.19335
       H   -14.52102   15.00723    4.81517
       O   -13.57222   14.86942    4.70595
      H1   -13.32892   14.64401    5.59055
       H   -13.68256   13.35106   13.51387
       O   -14.51255   13.63576   13.92758
      H1   -14.88170   14.28677   13.33448
       H   -13.29783   16.00135   10.46188
       O   -13.27227   15.33676   11.15369
      H1   -13.26186   14.51048   10.70189
       H   -11.52712   15.72531   11.67083
       O   -10.58753   15.52384   11.81781
      H1   -10.57669   14.70972   12.36608
       H   -12.52545    9.82810    7.02691
       O   -11.88924   10.30438    6.48646
      H1   -11.78911    9.72371    5.72309
       H   -16.77119   13.87139    9.77311
       O   -17.02459   14.74182   10.11933
      H1   -16.45916   14.95131   10.87013
       H   -16.05161   11.04946    6.87040
       O   -15.75368   11.93807    6.71840
      H1   -15.22622   11.80707    5.92824
       H   -14.37384    9.16583    8.25407
       O   -13.67062    8.75126    7.72752
      H1   -14.16907    8.53673    6.90254

