60
frame 1 | Written by MDAnalysis XYZWriter (release 2.4.3)
       H    -3.39972  -10.83579    4.63221
       O    -3.43530  -11.36502    3.81200
      H1    -2.77384  -10.88923    3.26370
       H     0.65545  -15.27396    5.94790
       O     1.05627  -15.93917    6.50529
      H1     1.42770  -16.57532    5.88729
       H    -4.78647   -9.85964    1.11258
       O    -4.51108  -10.33841    0.31675
      H1    -3.68819  -10.80528    0.54246
       H    -1.85089  -16.73477    2.85966
       O    -1.51890  -16.35220    3.69436
      H1    -2.18081  -15.67852    3.88503
       H    -5.49189  -13.74253    6.22777
       O    -5.34127  -14.64448    5.95801
      H1    -5.00126  -15.10140    6.73817
       H     0.03145  -17.09655    3.65940
       O     0.86168  -17.59114    3.64049
      H1     0.50581  -18.44244    3.90135
       H    -2.49371  -14.50300    2.04863
       O    -2.60546  -14.88470    1.17677
      H1    -3.27840  -15.56981    1.34160
       H    -1.15361  -13.18457    6.91373
       O    -0.29677  -12.91243    7.26122
      H1     0.32532  -12.82330    6.52561
       H    -6.26172  -14.38791    1.91672
       O    -6.31815  -14.61154    2.85078
      H1    -6.02001  -15.51056    2.81511
       H    -3.93528  -14.32748    4.28656
       O    -3.13929  -14.12442    3.83880
      H1    -3.19519  -13.15840    3.81161
       H    -7.40777  -13.63628    4.25557
       O    -7.83570  -13.77891    5.09118
      H1    -7.23958  -14.35463    5.56169
       H    -2.63654  -13.02544    0.51835
       O    -2.32022  -12.11008    0.59719
      H1    -1.43024  -12.19934    0.23845
       H    -5.60920  -11.82429    0.71358
       O    -6.14195  -12.63093    0.85949
      H1    -6.11152  -13.07890   -0.01512
       H    -5.81193  -11.78054    5.52267
       O    -5.92149  -12.05120    6.43178
      H1    -6.84404  -12.23098    6.61175
       H    -5.49765  -16.11436    4.75872
       O    -5.58714  -16.99970    4.37537
      H1    -6.51219  -17.19569    4.53741
       H    -0.89500  -16.85274    6.67271
       O    -1.70306  -17.29166    6.35659
      H1    -1.70537  -17.13450    5.40664
       H    -4.20218  -15.02182   -0.58196
       O    -4.50751  -15.80977   -0.97883
      H1    -5.44010  -15.78362   -0.80360
       H    -4.40615  -17.57587    1.38080
       O    -4.02331  -17.06548    2.11970
      H1    -4.63406  -17.17045    2.84475
       H     1.14409  -13.96060    4.05380
       O     0.45607  -14.05193    4.75779
      H1    -0.22156  -13.43097    4.46081
       H    -6.77716  -11.08009    3.38778
       O    -5.99790  -10.83920    3.93453
      H1    -5.21970  -11.07792    3.42513

