60
frame 1 | Written by MDAnalysis XYZWriter (release 2.4.3)
       H     3.76217    3.22104  -18.81387
       O     3.12317    3.87884  -18.53407
      H1     3.38035    4.05506  -17.64299
       H     7.48263    7.96967  -14.49491
       O     7.87717    7.51531  -15.25864
      H1     8.71046    7.13811  -14.90601
       H     8.93571    0.49770  -19.19902
       O     9.30416   -0.31175  -18.80144
      H1    10.14148   -0.01343  -18.38482
       H    12.40900    1.55069  -17.52463
       O    12.37395    0.66172  -17.82498
      H1    11.79877    0.17599  -17.21612
       H    10.42968    0.96761  -15.67128
       O    10.50317    0.09253  -16.11319
      H1    11.29689   -0.26386  -15.71400
       H     8.52709    0.22648  -16.84053
       O     7.65790    0.47913  -16.53485
      H1     7.67268    0.23827  -15.60511
       H     8.64644    4.40094  -17.34153
       O     8.20617    3.56072  -17.37185
      H1     8.56558    3.18983  -18.19142
       H     8.68150    8.00801  -18.08321
       O     8.09785    8.68072  -18.49262
      H1     8.06236    8.39400  -19.43703
       H     6.65021    3.99494  -13.41343
       O     6.20606    4.67335  -13.92641
      H1     5.92649    4.15303  -14.68995
       H    12.71331    3.38749  -18.63014
       O    12.94962    3.25653  -17.70362
      H1    12.46449    3.92397  -17.22671
       H     5.76313   -0.39671  -17.59177
       O     4.88987   -0.52009  -17.98064
      H1     5.03855   -1.32161  -18.54198
       H     7.82542    2.48646  -13.28224
       O     8.12023    3.27771  -12.79493
      H1     8.09925    2.96029  -11.85720
       H     5.01218    8.09153  -16.75722
       O     5.76971    7.73993  -17.22861
      H1     6.39164    7.62416  -16.51956
       H     6.29642    3.29775  -16.91404
       O     5.72649    3.00337  -16.17468
      H1     6.21256    2.35650  -15.64434
       H     9.52108   -1.10736  -15.46166
       O     8.80679   -1.61645  -15.04989
      H1     8.98687   -1.53309  -14.11155
       H     9.13405    2.91223  -16.01345
       O     9.76676    2.64486  -15.32965
      H1     9.35198    2.99393  -14.53749
       H     8.27721   -1.76953  -18.63209
       O     7.65980   -2.54070  -18.53573
      H1     8.18911   -3.29556  -18.78576
       H    12.55449    4.57351  -15.11742
       O    11.82033    4.46467  -15.74748
      H1    11.44843    3.61302  -15.53927
       H     4.37608    5.28372  -18.72116
       O     4.86660    5.94846  -19.20260
      H1     5.27105    6.44780  -18.47241
       H     8.72509    6.62751  -16.60873
       O     9.41523    6.24223  -17.19431
      H1    10.13116    6.10062  -16.57321

