60
frame 1 | Written by MDAnalysis XYZWriter (release 2.4.3)
       H    -5.25508   19.31789   -0.58847
       O    -5.23168   19.08792    0.37429
      H1    -4.52498   18.41232    0.49591
       H    -3.26743   18.65315    2.48377
       O    -3.62438   17.87966    2.97688
      H1    -4.56085   18.13605    3.15093
       H    -7.95781   16.77376   -1.03849
       O    -7.98168   15.90992   -0.64465
      H1    -7.81313   16.10817    0.27743
       H    -3.83401   17.62427    7.92933
       O    -3.41842   17.40800    8.77592
      H1    -3.92926   17.96376    9.40189
       H   -10.59371   17.85557    2.32747
       O   -10.13342   17.01675    2.50109
      H1   -10.72254   16.40276    2.05909
       H    -9.71931   11.64580    5.00720
       O    -9.55167   12.52225    4.68666
      H1    -9.68952   13.07662    5.45669
       H    -9.87813   17.28954    9.34794
       O    -9.92336   16.36344    9.05991
      H1   -10.14723   15.92733    9.89526
       H    -5.11606   14.09959    3.19084
       O    -5.50385   13.41769    3.76286
      H1    -6.37580   13.31621    3.35248
       H    -7.25305   18.67695   -1.96498
       O    -7.82452   18.52520   -1.21612
      H1    -7.23609   18.51424   -0.43407
       H   -10.25541   17.05777    4.32900
       O   -10.25074   17.15136    5.28539
      H1   -11.02051   17.75730    5.41402
       H    -3.73447   15.87972    2.22127
       O    -3.84079   14.92663    2.19541
      H1    -3.00953   14.60575    2.58581
       H    -3.50561   15.61019    4.59193
       O    -3.13640   15.26303    5.40951
      H1    -3.36044   14.31787    5.44810
       H    -6.35589   12.69208    7.29816
       O    -6.67733   13.53923    7.65856
      H1    -6.25465   14.20717    7.09940
       H    -8.34087   17.82433    7.68437
       O    -8.09283   17.40307    6.84890
      H1    -8.97858   17.17994    6.46574
       H    -9.49417   14.82423    7.35087
       O   -10.02510   14.54100    6.56672
      H1   -10.41348   15.34420    6.22085
       H    -6.12547   17.19449    5.15667
       O    -6.34829   17.69670    4.35888
      H1    -7.10596   18.23287    4.60817
       H    -8.53262   13.42918    3.44306
       O    -7.97010   13.47925    2.65783
      H1    -7.83921   14.44545    2.61665
       H    -1.03853   18.13465    5.25824
       O    -0.95249   17.98494    4.30959
      H1    -1.77948   18.25355    3.92518
       H    -6.87848   16.74902    3.18705
       O    -7.39993   16.29847    2.48331
      H1    -8.24517   16.70309    2.47000
       H    -6.51589   16.27035    6.87956
       O    -5.81810   15.77651    6.41097
      H1    -5.05045   15.75078    6.97031

