60
frame 1 | Written by MDAnalysis XYZWriter (release 2.4.3)
       H    -9.15076   -4.58448  -14.24839
       O    -8.28545   -4.77600  -14.58517
      H1    -7.63218   -4.58859  -13.89239
       H   -16.48779   -5.09627  -12.81845
       O   -15.95965   -5.27078  -13.61118
      H1   -16.68689   -5.42160  -14.22399
       H   -10.52533   -0.67255  -15.09824
       O   -11.05432   -0.79277  -15.90161
      H1   -11.68130   -0.06339  -15.89243
       H   -12.04661   -3.44941  -15.27174
       O   -12.30628   -3.14370  -16.13693
      H1   -11.86206   -2.27547  -16.18826
       H   -13.70801   -6.88199  -18.14194
       O   -13.05649   -7.19917  -18.76547
      H1   -12.37442   -7.57435  -18.12476
       H    -7.75352   -1.30816  -16.05602
       O    -7.40921   -0.45017  -15.86598
      H1    -6.87872   -0.20443  -16.67761
       H   -10.15575   -7.86649  -17.23429
       O   -10.92172   -7.34177  -17.06135
      H1   -10.65039   -6.45085  -17.27776
       H   -15.63028   -5.81746  -17.45608
       O   -15.07343   -6.52516  -17.16018
      H1   -15.64844   -7.26191  -16.85889
       H   -10.37779   -1.08123  -19.22124
       O   -10.82552   -0.43335  -18.64897
      H1   -10.28947   -0.48850  -17.83224
       H   -12.02025   -2.17588  -12.21642
       O   -12.88528   -1.74366  -12.32382
      H1   -13.28835   -2.12880  -13.11294
       H   -10.43103   -3.83782  -11.07541
       O   -10.16071   -4.67314  -11.47165
      H1    -9.50612   -5.02482  -10.84727
       H    -8.15354   -3.62629  -15.87556
       O    -8.11789   -3.22680  -16.75484
      H1    -7.30720   -3.55793  -17.13687
       H   -13.08689    0.49668  -12.72244
       O   -13.68540    1.00921  -12.15019
      H1   -13.98612    1.65360  -12.79529
       H   -10.48228    0.20994  -13.14441
       O    -9.90911   -0.46214  -13.47577
      H1    -9.16942   -0.47301  -12.85753
       H   -14.84782   -3.75258  -13.86945
       O   -14.36760   -2.95274  -14.09845
      H1   -14.00491   -3.14821  -14.97836
       H   -13.47336    1.70296  -15.07779
       O   -12.59670    1.35635  -15.25030
      H1   -11.98612    2.03407  -14.93514
       H   -12.94997   -5.34677  -18.82145
       O   -12.66007   -4.44395  -18.60229
      H1   -12.75787   -4.48742  -17.64840
       H   -10.67718   -2.55590  -13.93879
       O   -10.73497   -3.52227  -13.89736
      H1   -10.46358   -3.76949  -13.01116
       H   -10.75784   -4.61104  -18.01495
       O    -9.83318   -4.88895  -17.97511
      H1    -9.38593   -4.23332  -17.44857
       H   -16.02437   -2.01954  -13.94047
       O   -16.68996   -1.52800  -13.43237
      H1   -17.36153   -2.22258  -13.22833

