60
frame 1 | Written by MDAnalysis XYZWriter (release 2.4.3)
       H    16.31288    0.05055   -3.96781
       O    15.62604    0.70683   -4.11109
      H1    14.89894    0.37166   -3.51822
       H    14.73833   -3.64070   -2.97124
       O    15.17864   -3.17471   -2.24116
      H1    14.63872   -3.46545   -1.50191
       H    12.04202   -6.85930   -1.99179
       O    11.99677   -6.02922   -2.50404
      H1    12.88013   -5.70561   -2.50925
       H    17.01551   -4.59381   -3.26591
       O    17.73486   -4.91259   -2.67326
      H1    18.51275   -4.85498   -3.25200
       H    17.11093   -2.21268   -7.17907
       O    17.45957   -2.91753   -7.70949
      H1    18.36134   -2.61282   -7.74858
       H    12.80259   -0.42225   -2.82316
       O    13.14307    0.32573   -2.33664
      H1    12.58171    1.08472   -2.58656
       H    13.09930    1.48954   -5.83981
       O    12.42881    1.13688   -6.45262
      H1    12.76119    0.24422   -6.67814
       H    14.91341   -5.82600   -6.46215
       O    15.04474   -5.76685   -7.40505
      H1    15.12620   -4.81095   -7.53991
       H    15.80937   -0.31210   -6.24175
       O    15.68128   -1.25265   -6.34950
      H1    15.63293   -1.58689   -5.45969
       H     9.06183   -0.88567   -5.11387
       O     9.20220   -1.05811   -4.16149
      H1    10.12778   -1.38851   -4.13488
       H    11.48809   -5.44139   -8.65536
       O    10.84957   -5.12382   -9.30405
      H1    10.20373   -4.66922   -8.77292
       H    11.78917   -2.77477   -2.70725
       O    12.01635   -2.01365   -3.26039
      H1    12.46249   -2.42035   -4.01182
       H    12.13830   -1.58654   -8.01098
       O    13.02026   -1.37903   -7.66976
      H1    13.61052   -1.86228   -8.23515
       H    13.00272   -3.97785   -5.79437
       O    13.46270   -3.24459   -5.41480
      H1    13.57491   -2.64460   -6.14799
       H    14.55180   -3.41220   -9.32741
       O    14.87829   -3.28535   -8.42978
      H1    15.81422   -3.16028   -8.53888
       H     9.93197   -3.74426   -5.19737
       O    10.59598   -3.64710   -5.91711
      H1    10.92748   -4.54665   -6.12618
       H    16.46297   -2.25351   -3.14545
       O    16.87865   -1.74929   -3.86226
      H1    17.81620   -1.76480   -3.58200
       H    10.14274   -1.31630   -8.21885
       O    10.39995   -2.24259   -8.30433
      H1    10.31755   -2.57687   -7.39571
       H    13.41583   -5.83803   -7.33549
       O    12.48532   -5.60807   -7.04817
      H1    12.06790   -6.47072   -6.80308
       H    14.83048   -6.35780   -3.26893
       O    14.40324   -5.82026   -3.92838
      H1    13.96023   -6.50975   -4.45259

