60
frame 1 | Written by MDAnalysis XYZWriter (release 2.4.3)
       H   -18.93775    3.37660   -5.20566
       O   -18.51540    4.28194   -5.23638
      H1   -17.67664    4.09956   -5.66786
       H   -18.86805    7.02111   -4.15302
       O   -18.24978    7.52124   -4.67108
      H1   -18.80940    8.12115   -5.17457
       H   -15.62152    3.75213   -5.82497
       O   -16.24069    3.13042   -6.23225
      H1   -15.89885    2.27923   -5.91969
       H   -13.54558    0.44116   -8.09437
       O   -14.38391    0.45843   -8.55135
      H1   -14.43820    1.38297   -8.85506
       H   -15.68287    6.55969   -5.77521
       O   -16.36374    6.40835   -6.43519
      H1   -17.09572    6.72135   -5.91759
       H   -14.74795    1.97897  -11.03179
       O   -15.51047    2.53277  -10.81202
      H1   -16.21225    2.13859  -11.32556
       H   -12.45618    6.62876   -7.18759
       O   -13.39275    6.52530   -6.99495
      H1   -13.33144    6.24944   -6.07889
       H   -11.34382    3.76160  -10.59055
       O   -12.24405    3.41620  -10.51540
      H1   -12.74041    4.08741  -10.02147
       H   -15.92132    9.24756  -11.31038
       O   -15.44918    9.71502  -12.00232
      H1   -14.59823    9.97408  -11.65294
       H   -15.58204    6.39162  -12.34744
       O   -16.15262    6.93761  -12.89433
      H1   -16.06405    7.79666  -12.46900
       H   -17.97977    5.30623  -10.48270
       O   -17.68132    5.72681   -9.67549
      H1   -17.69637    4.99324   -9.02930
       H   -18.71037    6.66811  -13.29271
       O   -19.10225    7.52812  -13.53997
      H1   -18.31713    8.08943  -13.60080
       H   -17.15628    2.56311   -7.70271
       O   -17.62921    2.39888   -8.50921
      H1   -16.89569    2.17556   -9.10249
       H   -14.48460    6.63425   -9.92706
       O   -14.29226    7.57217   -9.73703
      H1   -14.17061    7.60684   -8.76210
       H   -16.12765    5.03091  -15.42225
       O   -16.44578    4.79433  -14.54070
      H1   -16.38044    5.57626  -14.00909
       H   -16.61461    8.13670   -7.30833
       O   -17.24119    8.84742   -7.52821
      H1   -17.59682    8.52877   -8.35687
       H   -14.24050    5.18954  -11.72585
       O   -14.99229    5.34920  -11.12924
      H1   -15.40043    4.46874  -11.14866
       H   -14.67388    3.98482   -8.44359
       O   -13.72503    4.04254   -8.22402
      H1   -13.75031    4.81211   -7.63031
       H   -18.23325    0.88247   -7.66253
       O   -18.51882    0.25395   -6.98764
      H1   -17.96681   -0.51086   -7.12291
       H   -18.00393    8.25428  -10.51115
       O   -17.06926    8.31878  -10.36530
      H1   -16.76002    7.43303  -10.15546

