60
frame 1 | Written by MDAnalysis XYZWriter (release 2.4.3)
       H    -0.63882  -18.90828    1.67048
       O    -1.55249  -18.65347    1.47396
      H1    -1.45044  -17.82796    0.95349
       H    -0.19721  -11.90120   -2.17821
       O    -0.38796  -11.67640   -1.25899
      H1    -1.06521  -10.96682   -1.35084
       H     0.97549  -14.67770   -0.48151
       O     0.43434  -14.17076    0.11852
      H1     0.39466  -13.31475   -0.30362
       H    -1.31712  -16.62916   -4.22272
       O    -1.15524  -16.89962   -5.12166
      H1    -1.63421  -16.27315   -5.67169
       H    -1.85089  -16.73477    2.85966
       O    -1.51890  -16.35220    3.69436
      H1    -2.18081  -15.67852    3.88503
       H    -2.70270  -12.46993   -1.77648
       O    -3.10574  -12.98283   -2.50460
      H1    -2.53937  -13.73060   -2.67391
       H     0.03145  -17.09655    3.65940
       O     0.86168  -17.59114    3.64049
      H1     0.50581  -18.44244    3.90135
       H    -2.49371  -14.50300    2.04863
       O    -2.60546  -14.88470    1.17677
      H1    -3.27840  -15.56981    1.34160
       H     2.51045  -14.78633    2.62777
       O     2.18220  -13.88151    2.63747
      H1     1.49740  -13.90165    1.96955
       H    -2.02721  -15.85632   -2.01867
       O    -1.93335  -15.48709   -2.90976
      H1    -2.76915  -15.70161   -3.34830
       H    -3.93528  -14.32748    4.28656
       O    -3.13929  -14.12442    3.83880
      H1    -3.19519  -13.15840    3.81161
       H    -4.67365  -16.59328   -2.55011
       O    -4.45136  -16.54546   -3.48620
      H1    -4.06242  -17.39356   -3.69214
       H    -0.78622  -15.76147   -0.08393
       O    -0.86904  -16.67977   -0.33783
      H1    -0.03770  -16.87330   -0.81141
       H     3.11156  -16.67082    2.41328
       O     2.64051  -16.55434    1.58539
      H1     1.78947  -16.92076    1.81268
       H    -2.63654  -13.02544    0.51835
       O    -2.32022  -12.11008    0.59719
      H1    -1.43024  -12.19934    0.23845
       H     2.62120  -14.26474   -1.11240
       O     2.60477  -15.20086   -1.48143
      H1     3.14059  -15.67169   -0.82738
       H     1.98315  -18.05954   -2.82874
       O     1.40910  -18.21101   -2.07230
      H1     1.75470  -19.01335   -1.66177
       H    -4.20218  -15.02182   -0.58196
       O    -4.50751  -15.80977   -0.97883
      H1    -5.44010  -15.78362   -0.80360
       H    -4.40615  -17.57587    1.38080
       O    -4.02331  -17.06548    2.11970
      H1    -4.63406  -17.17045    2.84475
       H     1.14409  -13.96060    4.05380
       O     0.45607  -14.05193    4.75779
      H1    -0.22156  -13.43097    4.46081

