60
frame 1 | Written by MDAnalysis XYZWriter (release 2.4.3)
       H   -12.46476    2.77602   -6.20117
       O   -12.24423    3.66025   -5.87405
      H1   -11.69882    3.44838   -5.10033
       H    -4.96085    2.42337   -7.07591
       O    -4.47879    2.59554   -6.26541
      H1    -3.72396    3.10771   -6.58847
       H    -3.40885    0.45514   -5.29618
       O    -4.25503   -0.02466   -5.29597
      H1    -4.92976    0.64623   -5.39459
       H    -6.18035    2.75076   -9.32408
       O    -5.97910    2.11216   -8.62380
      H1    -6.82042    2.20978   -8.17136
       H    -7.85450   -0.35448   -6.98053
       O    -7.87484   -0.68607   -6.04571
      H1    -8.57359   -1.35700   -6.01978
       H   -10.90953    4.02331   -7.15400
       O   -10.44205    3.85540   -7.99123
      H1   -11.14139    3.57626   -8.58175
       H   -10.31071    5.51023   -4.07848
       O    -9.65521    4.83938   -4.22187
      H1    -8.97806    5.29260   -4.72042
       H   -12.26629    0.50834   -5.72660
       O   -12.32874    0.71818   -6.68324
      H1   -11.40332    0.67429   -6.99654
       H    -9.46551    5.28192  -11.42256
       O    -9.48809    4.56937  -10.81214
      H1    -8.69522    4.10899  -11.08100
       H    -7.13059    5.59986   -7.84512
       O    -7.10242    5.65621   -8.79968
      H1    -7.84589    5.09132   -9.06011
       H    -4.21095    4.63164   -8.57080
       O    -4.58492    4.83497   -9.46763
      H1    -5.49056    5.04453   -9.20329
       H    -7.21953    6.55446   -5.77248
       O    -7.50331    5.65926   -5.93460
      H1    -6.95278    5.17505   -5.30018
       H    -9.22474    0.39824   -8.80125
       O   -10.02861    0.91983   -8.74777
      H1    -9.76125    1.83851   -8.67250
       H   -10.33222    2.04710   -3.77148
       O   -11.23179    2.28950   -3.57492
      H1   -11.20272    2.60926   -2.69111
       H    -7.26286   -1.19020   -9.09151
       O    -7.59795   -0.37658   -8.73237
      H1    -6.76712    0.10175   -8.73653
       H    -8.53315    0.69965   -3.52687
       O    -8.78004    1.01843   -4.42954
      H1    -8.51940    0.22344   -4.91240
       H    -6.57584    4.28673  -11.75900
       O    -6.95341    3.54518  -11.22232
      H1    -7.14545    2.86561  -11.87485
       H    -5.88450    3.33641   -4.93476
       O    -6.01556    4.00680   -4.24289
      H1    -5.10098    4.32433   -4.12766
       H    -8.50821    2.55122   -6.12997
       O    -8.22565    2.69343   -7.07277
      H1    -8.96762    3.28432   -7.29875
       H   -10.21403    5.70675   -8.38367
       O   -10.02295    6.66206   -8.59848
      H1   -10.69872    6.85894   -9.27086

