60
frame 1 | Written by MDAnalysis XYZWriter (release 2.4.3)
       H     2.12483    6.81791   -5.83424
       O     1.77885    6.76665   -6.73172
      H1     2.28164    6.05353   -7.16884
       H    -4.27581    9.45890   -5.89148
       O    -4.69690    9.39224   -5.02567
      H1    -3.99130    9.23870   -4.38963
       H     0.27456    4.15296   -6.08963
       O    -0.30053    4.93769   -6.05163
      H1     0.25471    5.58353   -6.48980
       H     0.35571   12.59080   -3.38647
       O    -0.23157   11.86862   -3.08966
      H1    -0.63608   12.25734   -2.31784
       H     1.56587    7.94169   -4.14991
       O     2.47659    7.68549   -4.25130
      H1     2.55759    7.05263   -3.55793
       H    -0.37016    7.29293   -1.21716
       O    -0.18459    6.66483   -0.50896
      H1     0.55109    6.13171   -0.80725
       H    -2.25073    6.11937   -7.80614
       O    -2.99902    6.41877   -7.23900
      H1    -2.75113    7.31315   -6.91919
       H    -0.58779    8.66479  -10.61613
       O    -0.97838    8.99772   -9.76935
      H1    -0.90997    8.15878   -9.24978
       H     0.31651    9.47794   -8.65095
       O     1.15081    9.35845   -8.17484
      H1     0.96760    8.68653   -7.50055
       H     3.43046    5.70422   -1.88284
       O     2.77437    5.55081   -2.56533
      H1     2.83273    4.59483   -2.70911
       H     0.13267   10.66237   -5.78407
       O    -0.71783   10.97232   -5.52942
      H1    -0.60287   11.14464   -4.57653
       H     3.30751   10.81437   -4.59177
       O     4.13333   10.36629   -4.38819
      H1     3.91835    9.83985   -3.59665
       H     2.36083   12.23117   -6.16872
       O     1.93135   11.38410   -6.21009
      H1     2.40800   10.99822   -6.93091
       H    -2.51307    5.80228   -3.26991
       O    -3.40901    5.76926   -2.93580
      H1    -3.34088    5.24039   -2.14644
       H    -1.37747    8.66101   -6.09875
       O    -1.96777    8.84811   -6.81061
      H1    -2.00831    9.81409   -6.86248
       H    -4.15800    9.00315   -2.43298
       O    -3.30864    8.67843   -2.79041
      H1    -3.48835    7.73251   -2.93486
       H    -1.23437    6.06634   -9.66357
       O    -0.79749    6.40443   -8.87205
      H1     0.13853    6.43395   -9.01388
       H    -1.64103    9.02430   -2.14337
       O    -0.70763    8.88465   -1.95346
      H1    -0.39540    9.70064   -1.55600
       H    -0.31483    7.21776   -4.68013
       O    -0.16059    8.16480   -4.70092
      H1    -0.53820    8.45108   -3.84980
       H     0.29511    5.27801   -3.04576
       O    -0.46374    5.65946   -3.50278
      H1    -0.48660    5.20459   -4.34241

