60
frame 1 | Written by MDAnalysis XYZWriter (release 2.4.3)
       H   -14.37993   14.80978  -15.46945
       O   -14.66546   15.71461  -15.25376
      H1   -14.89251   15.62092  -14.34386
       H   -13.74501   12.97995  -16.84620
       O   -13.27131   13.48486  -16.16053
      H1   -12.57589   13.97975  -16.63860
       H   -11.44063   15.82020  -15.13403
       O   -10.94946   14.99781  -15.07502
      H1   -10.08008   15.17018  -15.47372
       H   -15.92132    9.24756  -11.31038
       O   -15.44918    9.71502  -12.00232
      H1   -14.59823    9.97408  -11.65294
       H   -14.27088   13.16902  -13.11967
       O   -15.08039   13.70684  -13.15351
      H1   -15.74757   13.05585  -12.90556
       H   -14.04724    8.78463  -14.66124
       O   -14.30330    7.83514  -14.79473
      H1   -14.92327    7.65383  -14.07163
       H   -10.98478   12.83055  -11.08625
       O   -11.21089   12.73897  -10.16225
      H1   -10.34574   12.55694   -9.72987
       H   -13.04869   14.91289  -11.27948
       O   -13.98977   14.87466  -11.00720
      H1   -14.46209   14.54594  -11.79433
       H   -13.60712   11.31606  -14.60100
       O   -14.13582   10.77836  -15.16610
      H1   -14.61758   11.42824  -15.70063
       H   -13.20550   17.50754  -13.24902
       O   -13.88144   17.60102  -12.59780
      H1   -13.78603   16.78891  -12.06066
       H   -18.31802   13.19469  -15.85183
       O   -17.39656   13.49376  -15.79888
      H1   -17.03837   12.96386  -15.08841
       H   -18.03700   11.67321  -12.40262
       O   -17.15043   11.87573  -12.08406
      H1   -16.73197   11.03069  -12.12664
       H   -15.88247   12.02462  -18.08397
       O   -15.33952   12.27065  -17.31630
      H1   -15.97492   12.70635  -16.74582
       H   -11.61163   12.31048  -13.33583
       O   -12.54191   12.39999  -13.61758
      H1   -12.46732   12.79501  -14.48719
       H   -13.96436   13.76359   -9.59391
       O   -14.45234   13.35732   -8.83874
      H1   -14.59869   12.41878   -9.04017
       H   -12.97072   10.51988   -9.01424
       O   -13.17983   10.72283   -9.90022
      H1   -12.47799   11.36536  -10.15401
       H   -12.27990   18.12305  -15.16013
       O   -12.46807   17.24295  -14.79037
      H1   -13.17336   16.89847  -15.33727
       H   -15.93198   10.32328  -14.63608
       O   -16.89254   10.33004  -14.75880
      H1   -17.04677    9.82864  -15.57029
       H   -11.01273   16.16484  -12.31173
       O   -11.46305   15.28151  -12.31058
      H1   -11.24852   15.05072  -13.23083
       H    -9.29858   11.50812  -12.74668
       O    -9.88481   12.22847  -12.47939
      H1    -9.32798   12.99982  -12.47357

