60
frame 1 | Written by MDAnalysis XYZWriter (release 2.4.3)
       H   -14.88932  -15.33669    9.91205
       O   -15.24226  -14.45910    9.91712
      H1   -16.13510  -14.57875    9.60290
       H   -14.60359  -13.67254    2.42303
       O   -15.36606  -13.12954    2.26981
      H1   -15.34036  -12.75904    1.39429
       H   -14.06062  -16.39604    6.00976
       O   -13.14483  -16.10862    5.80435
      H1   -13.19131  -15.40849    5.14152
       H   -18.70588  -12.80037   11.39382
       O   -18.72077  -12.28151   10.58270
      H1   -18.54671  -11.38504   10.94412
       H   -13.75870  -14.96133    7.24197
       O   -14.04405  -14.05276    7.42097
      H1   -14.68120  -14.18990    8.13672
       H   -19.30869   -8.93384    9.45979
       O   -19.14801   -9.12951   10.38671
      H1   -18.30148   -8.74878   10.50958
       H   -17.75089  -13.30750    9.14657
       O   -17.45554  -13.95936    8.51853
      H1   -18.04608  -14.68869    8.68396
       H   -14.93331  -13.49535    6.12075
       O   -15.23535  -13.13577    5.28344
      H1   -15.44477  -13.90707    4.75938
       H   -14.11310   -8.63924    6.75658
       O   -13.97031   -9.53748    7.09693
      H1   -14.82006   -9.94604    7.04126
       H   -17.93995  -13.06784    6.99245
       O   -18.66659  -12.48776    6.63933
      H1   -18.21210  -12.12562    5.87850
       H   -17.34823   -9.64901    7.39117
       O   -17.07475  -10.34349    7.99998
      H1   -17.74142  -11.01732    7.85345
       H   -17.50043  -13.22570    1.73784
       O   -18.42499  -13.39667    1.60307
      H1   -18.73893  -13.50377    2.51176
       H   -17.89545  -17.49483   10.92231
       O   -17.27152  -17.00649   10.41426
      H1   -16.59471  -17.64817   10.18482
       H   -16.46671  -11.70602    4.52540
       O   -17.40614  -11.46548    4.41836
      H1   -17.48540  -11.29467    3.46336
       H   -15.37630   -9.52472   10.15204
       O   -16.15948   -9.94277   10.56046
      H1   -16.62129  -10.34865    9.78894
       H   -17.90223  -16.87219    8.89322
       O   -18.02018  -16.73925    7.95902
      H1   -17.15170  -16.91107    7.57259
       H   -15.10155  -17.38823    7.43233
       O   -15.44808  -17.30005    6.53350
      H1   -15.72636  -18.18848    6.29318
       H   -14.58120  -11.58004    3.00824
       O   -14.23016  -10.72890    3.21671
      H1   -13.40411  -10.92065    3.67735
       H   -17.19788   -9.80528    4.93264
       O   -17.21924   -8.93935    5.38477
      H1   -17.95503   -8.50804    4.94731
       H   -12.77990  -13.07879    8.28369
       O   -11.98613  -12.98752    8.86895
      H1   -12.03687  -12.07171    9.19381

