60
frame 1 | Written by MDAnalysis XYZWriter (release 2.4.3)
       H    14.38970   18.82583   -5.89931
       O    14.88494   18.73937   -5.10309
      H1    15.24266   17.84382   -5.19699
       H    17.11633   15.63472   -8.85011
       O    17.77450   15.24225   -9.45561
      H1    17.20943   14.81373  -10.10190
       H    18.83082   12.36531   -8.56103
       O    17.99733   12.79055   -8.51445
      H1    18.17914   13.68702   -8.89823
       H    15.25550   18.13249  -13.94139
       O    14.78964   18.62783  -14.61021
      H1    14.23775   17.96029  -15.04406
       H    19.07738   17.29801  -10.79421
       O    18.55959   17.54043  -11.54637
      H1    19.21608   17.97330  -12.10033
       H    16.57995   13.32526  -11.92367
       O    16.12725   13.78006  -11.22467
      H1    15.58667   14.40912  -11.70827
       H    17.37758   18.47092   -7.71829
       O    18.13902   18.84957   -7.26254
      H1    17.85991   19.03728   -6.36850
       H    11.27779   16.08949  -10.44658
       O    10.84155   16.97516  -10.33046
      H1    10.28126   16.80957   -9.58143
       H    18.49418   15.81710  -12.20040
       O    18.69913   14.87526  -12.36310
      H1    18.60124   14.45411  -11.50760
       H    15.04084   13.82944   -7.21573
       O    14.23287   13.98903   -7.73185
      H1    13.63691   14.36788   -7.07390
       H    15.94383   17.72628  -11.53011
       O    15.70717   18.48483  -10.98998
      H1    14.83156   18.24293  -10.69535
       H    17.78918   16.39159  -16.26956
       O    16.95131   16.71706  -15.82250
      H1    17.36426   17.19097  -15.06807
       H    13.17249   15.90193  -16.07172
       O    13.78712   15.64361  -15.37136
      H1    14.56240   15.43674  -15.82277
       H    15.28070   17.56020   -8.33869
       O    16.14818   17.39738   -8.69123
      H1    16.06644   17.56523   -9.64352
       H    12.71117   18.90815  -14.07493
       O    11.77332   18.99625  -13.87486
      H1    11.53486   18.06384  -13.81258
       H    11.01862   15.62492  -13.72606
       O    10.67115   16.49448  -13.80068
      H1    10.10047   16.60781  -13.01623
       H    12.86063   13.81085  -10.69565
       O    12.08942   14.35909  -10.87870
      H1    11.69485   13.94539  -11.63114
       H    17.62888   14.43210  -13.62573
       O    16.94465   14.19982  -14.29308
      H1    16.87575   14.98943  -14.88929
       H    13.08481   18.72023   -9.26437
       O    13.07300   18.44932  -10.20465
      H1    12.28021   17.89853  -10.22203
       H    16.00266   15.45080  -13.35060
       O    15.35824   16.11962  -13.14968
      H1    14.67933   16.01394  -13.82537

