60
frame 1 | Written by MDAnalysis XYZWriter (release 2.4.3)
       H     8.05113   -6.78788  -11.38612
       O     8.13384   -6.61297  -12.34420
      H1     7.25822   -6.91370  -12.68457
       H     5.81224   -6.75895   -8.53008
       O     5.69105   -6.24210   -7.72851
      H1     5.15603   -6.83948   -7.20532
       H     6.22957   -8.29071  -10.07150
       O     6.75434   -7.45625   -9.94371
      H1     7.51908   -7.81707   -9.47526
       H     6.24165   -6.23999  -14.98019
       O     5.36498   -6.60937  -14.99308
      H1     5.14074   -6.76148  -14.05494
       H     8.53396   -4.62358  -14.68780
       O     7.60244   -4.81498  -14.67169
      H1     7.12123   -4.23578  -15.29394
       H     5.27649   -5.07124   -9.04569
       O     4.71452   -4.70754   -9.73847
      H1     3.84903   -4.66585   -9.34880
       H     6.38624   -3.38209  -10.59304
       O     6.75147   -2.94596   -9.81723
      H1     5.99491   -2.90739   -9.24367
       H     4.91948   -0.73379  -12.13724
       O     5.72506   -0.34677  -11.71787
      H1     5.67545   -0.57211  -10.78475
       H     4.18718   -4.46839  -13.15573
       O     3.30214   -4.31366  -13.54496
      H1     3.56371   -3.95998  -14.41348
       H     8.58197   -1.83484  -11.69848
       O     8.37578   -1.10869  -12.29976
      H1     7.42183   -0.99755  -12.19217
       H     7.53730   -4.91051   -7.64860
       O     8.25262   -4.77503   -8.26759
      H1     7.81678   -4.20760   -8.91538
       H     2.99335   -2.71558  -16.33489
       O     3.45550   -3.53559  -16.25188
      H1     4.38002   -3.24607  -16.20212
       H     4.92091   -8.39423  -13.05404
       O     5.17551   -7.62473  -12.54368
      H1     4.38780   -7.52750  -12.01503
       H     6.47618   -2.37791  -15.59098
       O     6.04473   -3.01519  -16.18002
      H1     6.50631   -2.79752  -16.99711
       H     3.94449   -2.67764  -12.76954
       O     3.69141   -1.74613  -12.89675
      H1     3.49178   -1.68035  -13.84464
       H     1.99467   -2.33626  -11.93416
       O     1.46821   -2.92388  -11.41148
      H1     0.57153   -2.54194  -11.36603
       H     9.78973   -5.45019  -12.51320
       O    10.67073   -5.44792  -12.13247
      H1    10.51786   -5.84622  -11.26542
       H     6.65788   -4.80707  -12.76845
       O     5.84746   -4.48669  -12.36823
      H1     5.75065   -5.02574  -11.56971
       H     8.46627   -8.58130  -14.79967
       O     7.99659   -9.02645  -14.07266
      H1     8.04252   -8.34683  -13.40333
       H     3.05582   -7.09985  -15.03631
       O     2.35103   -6.44409  -15.01412
      H1     2.68096   -5.74631  -14.41883

