60
frame 0 | Written by MDAnalysis XYZWriter (release 2.4.3)
       H     1.18488  -13.48162    8.64953
       O     1.15031  -13.46932    9.62155
      H1     1.44820  -14.33639    9.90017
       H     1.87795  -17.02375    9.42811
       O     1.69265  -16.15831    9.74595
      H1     0.85172  -15.95015    9.33065
       H    -3.97333  -13.16499    5.55298
       O    -3.06642  -13.08038    5.20722
      H1    -2.78416  -12.17955    5.49854
       H    -4.47422  -16.40770    7.97046
       O    -4.92120  -15.60201    8.22379
      H1    -4.42228  -15.35626    9.02363
       H     0.79634  -15.96068    5.36181
       O     0.85119  -16.18836    6.27588
      H1     1.15786  -17.09148    6.24428
       H    -2.90697  -16.23437    3.70035
       O    -2.32398  -15.78973    4.35554
      H1    -2.71677  -14.89959    4.37444
       H    -5.75754  -13.02559    6.54350
       O    -5.54480  -13.88579    6.15116
      H1    -5.43840  -14.45008    6.92466
       H    -0.28624  -16.69120    2.40968
       O    -0.13231  -16.95510    3.31250
      H1    -0.91023  -16.58791    3.76243
       H    -1.31573  -14.18076   11.17323
       O    -1.65199  -15.03583   10.87289
      H1    -1.13199  -15.21285   10.08525
       H    -2.10578  -13.84762    7.04794
       O    -2.61531  -13.75552    7.88726
      H1    -3.44066  -14.21456    7.60978
       H    -6.07455  -17.13024   12.21095
       O    -6.18016  -16.73374   11.36304
      H1    -5.25885  -16.49063   11.17768
       H     0.01984  -15.75183    7.66902
       O    -0.68209  -15.80280    8.34061
      H1    -1.31276  -15.10649    8.08371
       H    -3.70475  -12.37356    9.50881
       O    -3.44360  -11.44534    9.48878
      H1    -2.55139  -11.50949    9.13446
       H    -5.53429  -13.74132   10.47077
       O    -4.60844  -14.11967   10.46830
      H1    -4.25215  -13.80829   11.32218
       H    -2.68583  -17.55137   10.11933
       O    -3.42343  -16.98880   10.35313
      H1    -3.06352  -16.17698   10.72361
       H    -5.47586  -15.30525    4.87685
       O    -5.53404  -16.14914    4.41673
      H1    -5.93086  -15.89722    3.58221
       H    -2.27057  -17.02660    7.50753
       O    -3.05905  -17.12655    6.94127
      H1    -2.84412  -16.50859    6.23151
       H    -7.55611  -18.21093    7.51926
       O    -7.88863  -17.40601    7.89692
      H1    -7.13971  -16.81164    7.96134
       H    -0.07763  -17.01265   12.54636
       O    -0.20169  -16.13372   12.86559
      H1    -0.46566  -15.64864   12.05775
       H    -4.11143  -17.31973    2.25010
       O    -3.67007  -17.56375    3.08262
      H1    -4.31799  -17.23644    3.67424

