60
frame 1 | Written by MDAnalysis XYZWriter (release 2.4.3)
       H    14.55413    2.42680   11.35718
       O    15.11974    1.85871   10.80074
      H1    15.97526    2.23846   11.06025
       H    15.88412   -4.18818    8.77103
       O    16.75505   -4.04347    9.19717
      H1    17.03835   -4.87924    9.53679
       H    17.89763   -3.84937    7.66311
       O    18.76972   -3.70973    7.28335
      H1    18.69739   -4.15839    6.41910
       H    16.18964   -1.23595   10.18975
       O    16.25484   -0.83117    9.33960
      H1    17.09927   -0.40884    9.36753
       H    15.97968    1.90731    7.16543
       O    16.77903    2.37443    6.92048
      H1    17.04399    2.91945    7.65817
       H    11.56950    1.09552   12.29494
       O    12.24529    1.17524   11.61828
      H1    12.86810    0.46859   11.87362
       H    18.86157   -0.07218   11.86846
       O    18.03303   -0.08068   12.35943
      H1    17.70270   -0.97073   12.18060
       H    11.82640    1.17457    9.84115
       O    11.78739    1.55812    8.95096
      H1    12.65158    1.40208    8.55573
       H    19.51874    0.97600    5.91604
       O    19.09106    1.83758    5.99063
      H1    18.19970    1.60008    6.28629
       H    11.89579   -2.07776    9.51949
       O    12.61479   -2.55528    9.08631
      H1    13.26808   -2.67558    9.80637
       H    14.30833   -3.60070   11.72352
       O    13.73640   -2.87843   11.52174
      H1    14.13715   -2.11049   11.94872
       H    16.50079   -2.42470    4.09511
       O    15.96459   -2.10315    4.84358
      H1    16.65147   -1.84266    5.47069
       H    14.30957    0.28286    7.48403
       O    14.33922    1.07774    8.01806
      H1    14.82321    0.76643    8.79675
       H    17.09862   -1.22548    7.61312
       O    17.57932   -1.14790    6.79066
      H1    18.16366   -1.92602    6.77167
       H    13.17126   -0.58970    6.04659
       O    13.89946   -0.08303    5.66076
      H1    14.50506   -0.66184    5.16108
       H    17.24408   -3.13100   12.17499
       O    16.91432   -2.62875   11.41335
      H1    16.48298   -3.27138   10.82429
       H    18.31391    3.00512   11.71290
       O    17.68030    2.47367   11.23818
      H1    17.67814    1.66618   11.77996
       H    11.06756   -0.83236    6.91604
       O    11.76342   -1.45073    6.62080
      H1    12.29457   -1.52714    7.45639
       H    14.87476    0.32280   12.23296
       O    14.40161   -0.45863   12.59988
      H1    14.53519   -0.38377   13.54720
       H    18.73750    1.12974    8.11671
       O    18.56632    0.82189    9.01148
      H1    18.31864    1.64864    9.47351

