60
frame 1 | Written by MDAnalysis XYZWriter (release 2.4.3)
       H    13.56759   12.37903   -8.39887
       O    13.08619   11.81531   -8.98612
      H1    13.33526   10.92483   -8.71870
       H    10.41844   10.70346   -8.42096
       O    10.55439   10.04875   -7.71576
      H1     9.72547   10.08653   -7.23321
       H    10.16114    8.37403   -8.65122
       O     9.92152    7.50965   -8.96942
      H1     9.23195    7.18161   -8.30804
       H    10.82254   10.88526  -14.17094
       O    10.64545    9.96668  -14.38986
      H1     9.75579   10.08338  -14.78040
       H    12.43362    4.94006  -11.97355
       O    12.39250    5.07945  -11.02764
      H1    13.32921    5.09379  -10.76432
       H    11.30765    7.00822   -8.25810
       O    12.03393    6.57698   -7.80118
      H1    11.61731    5.74047   -7.52871
       H    13.36655   11.13230  -14.37382
       O    12.86902   11.59089  -13.69803
      H1    13.56521   11.72687  -13.03020
       H     9.26937    5.62276  -11.72045
       O     9.24700    5.95777  -12.63694
      H1     8.71176    5.32335  -13.13570
       H    10.47442   11.17173  -10.43716
       O     9.85443   11.77270   -9.93274
      H1     9.11435   11.17179   -9.79701
       H    10.49029    7.02945  -13.70118
       O    10.50844    7.19061  -14.66667
      H1    10.53630    8.14052  -14.71430
       H    12.26786    7.25315  -14.59477
       O    13.10307    6.83540  -14.53888
      H1    13.68610    7.50178  -14.11905
       H    16.17288    6.13933  -11.27102
       O    16.76488    6.72089  -11.73740
      H1    16.25021    7.52196  -11.92539
       H    11.63652   11.25612   -7.00693
       O    12.11178   11.77285   -6.34007
      H1    13.01825   11.88652   -6.70638
       H     9.00092    7.82128  -10.36892
       O     8.23747    7.83270  -10.94000
      H1     8.53206    7.20400  -11.60899
       H    13.68131    9.20861   -7.43554
       O    13.92321    9.30372   -8.34873
      H1    14.86017    9.45788   -8.33255
       H    13.87957   11.66327  -10.62620
       O    14.31334   11.80476  -11.47828
      H1    15.10384   12.35709  -11.26116
       H    14.51626    9.95022  -12.05140
       O    14.86139    9.05655  -12.12338
      H1    14.23326    8.48288  -11.62144
       H    11.61646   10.07435  -12.03978
       O    11.40640    9.89153  -11.11988
      H1    11.99836    9.16648  -10.95088
       H    13.32678    8.26410   -9.62202
       O    13.20898    7.79593  -10.47287
      H1    12.66682    7.02563  -10.29823
       H     7.61636    8.99800  -12.24194
       O     7.06434    9.35736  -12.96463
      H1     6.85399   10.24879  -12.63387

