60
frame 1 | Written by MDAnalysis XYZWriter (release 2.4.3)
       H    17.56911  -17.08333   -0.87052
       O    17.26499  -16.21947   -1.17857
      H1    18.00156  -15.92613   -1.72553
       H    13.26896  -18.28853    0.86452
       O    13.65461  -17.76313    0.13090
      H1    13.30145  -18.16821   -0.66241
       H    18.20076  -17.59588   -4.39862
       O    18.05892  -18.55922   -4.47852
      H1    18.95328  -18.91545   -4.34151
       H    14.83403  -16.67952    0.54805
       O    15.24326  -15.81130    0.69622
      H1    16.08582  -15.83833    0.18369
       H    14.55239  -11.36294   -0.68210
       O    15.41026  -11.20734   -1.08519
      H1    15.52824  -11.99185   -1.62839
       H    12.55233  -17.20808   -3.86169
       O    13.22724  -16.53144   -3.65664
      H1    14.01523  -17.05945   -3.56198
       H    15.01037  -14.10445   -2.22713
       O    15.34085  -13.39038   -2.75501
      H1    16.29745  -13.48909   -2.78393
       H    13.50398  -15.73777   -1.95287
       O    13.55999  -14.95379   -1.41616
      H1    14.20033  -15.23823   -0.72778
       H    14.76562  -18.87364   -3.24311
       O    14.91072  -18.53843   -2.35624
      H1    15.39861  -17.75128   -2.55769
       H    14.02794  -14.11004   -5.56263
       O    13.85588  -15.00832   -5.90717
      H1    13.69892  -15.56096   -5.13653
       H    13.62624  -12.36076   -4.45607
       O    14.34830  -12.16137   -5.09612
      H1    15.17698  -12.24968   -4.62291
       H    16.04856  -17.66040   -4.93026
       O    15.83518  -16.73553   -4.70726
      H1    16.67966  -16.32335   -4.53064
       H    18.31163  -11.28741   -0.72034
       O    18.75302  -12.14182   -0.78847
      H1    18.57798  -12.54060    0.08452
       H    11.81977  -16.48188    3.26134
       O    12.28356  -16.27526    2.42306
      H1    13.07839  -16.86075    2.34626
       H    17.82098  -12.95475   -3.69143
       O    17.99769  -13.63626   -3.02056
      H1    18.11779  -13.12196   -2.21884
       H    16.36142  -11.50666    0.47442
       O    16.65397  -12.12111    1.13694
      H1    17.39449  -11.66859    1.58867
       H    18.45099  -15.10473   -3.99796
       O    18.30350  -15.68847   -4.75967
      H1    17.81581  -15.16927   -5.42203
       H    18.11944  -16.76117    3.02748
       O    18.94313  -17.13218    2.65401
      H1    18.69896  -17.69301    1.90268
       H    15.87519  -16.23672    2.62050
       O    16.12795  -16.50039    3.49178
      H1    16.09728  -15.67385    3.99337
       H    15.40478  -12.24584    2.46530
       O    14.67945  -11.88810    3.01284
      H1    14.04273  -11.58212    2.34641

