60
frame 1 | Written by MDAnalysis XYZWriter (release 2.4.3)
       H     8.13793  -12.53212   -7.70620
       O     8.12616  -11.58962   -7.43705
      H1     9.02586  -11.28933   -7.55865
       H     7.39724  -15.07013   -8.13939
       O     6.81674  -15.51612   -7.49735
      H1     7.45419  -15.92841   -6.86409
       H    11.23792  -13.83593   -7.16691
       O    11.11563  -14.15111   -6.28135
      H1    11.91649  -14.64230   -6.03456
       H     4.32988  -14.45129   -4.04435
       O     3.68382  -15.16054   -3.92327
      H1     3.36087  -15.04700   -3.01841
       H     7.87149  -13.99428   -9.93645
       O     8.40257  -13.81802   -9.13271
      H1     9.35802  -13.82753   -9.43661
       H     4.60950  -16.73800   -3.45753
       O     4.87528  -17.62773   -3.61311
      H1     5.18136  -17.90267   -2.72063
       H     9.16387  -18.04242  -11.26064
       O     8.27103  -17.72227  -11.30430
      H1     8.36944  -16.78398  -11.22255
       H     1.87558  -14.21761   -9.09457
       O     2.50290  -14.92648   -9.22787
      H1     2.32019  -15.25357  -10.12343
       H     4.94513  -13.31761   -8.21587
       O     4.84337  -13.58751   -9.16647
      H1     4.16697  -14.26010   -9.13678
       H     8.47735  -14.44022   -2.94520
       O     8.21382  -14.45096   -3.84749
      H1     8.39755  -15.36707   -4.12792
       H    11.53128  -17.09750   -7.85495
       O    11.04654  -17.48477   -7.11821
      H1    10.22632  -17.85439   -7.54324
       H     9.83218  -15.61681   -6.02321
       O     9.16231  -16.27236   -5.80129
      H1     9.59840  -17.13341   -5.95396
       H     4.60883  -16.55156   -7.30609
       O     4.37261  -17.49028   -7.54715
      H1     4.66268  -17.88410   -6.72651
       H     6.34114  -19.40728   -5.97156
       O     6.48533  -18.44192   -5.93752
      H1     6.14749  -18.19042   -5.08217
       H     5.29750  -17.64984   -9.13266
       O     5.75066  -17.59911   -9.97025
      H1     6.70349  -17.65324   -9.79644
       H     8.43162  -12.79780   -4.48914
       O     8.55168  -11.83194   -4.61207
      H1     8.61486  -11.62607   -5.52632
       H     5.70940  -11.73366   -6.00973
       O     4.91261  -11.17826   -6.05716
      H1     5.17739  -10.28581   -5.76453
       H     5.57160  -14.48914  -10.64277
       O     6.19015  -15.17904  -10.92847
      H1     5.76300  -15.94154  -10.55614
       H     8.10913  -19.17565   -8.16354
       O     8.30922  -18.28502   -7.89833
      H1     7.61734  -18.05837   -7.23081
       H     6.45219  -14.32559   -5.83982
       O     5.93800  -13.74833   -5.24571
      H1     6.50284  -13.67473   -4.48716

