60
frame 1 | Written by MDAnalysis XYZWriter (release 2.4.3)
       H     7.18694    8.46828    8.71248
       O     8.07369    8.84381    8.64907
      H1     8.23033    9.29935    9.47263
       H     9.61632    9.16258   12.68749
       O    10.32170    8.75576   13.19197
      H1    10.94887    8.47311   12.52013
       H     4.72947   14.99478    9.70443
       O     4.90668   14.48907    8.86461
      H1     5.17248   13.62931    9.19958
       H    11.48084   10.70252   10.00105
       O    11.45529   10.46540   10.93398
      H1    11.54332   11.33069   11.38054
       H     5.19365   16.84495   11.99416
       O     6.08718   17.20244   12.13154
      H1     6.69603   16.43464   12.04097
       H     7.79734   11.03253   14.00990
       O     7.46408   10.32549   14.56558
      H1     8.25996   10.11029   15.08271
       H     3.11602   15.44614   11.42792
       O     4.01974   15.69002   11.34145
      H1     4.45867   15.14977   12.02851
       H     4.73588   11.68064   14.76908
       O     5.44803   12.28224   14.97589
      H1     6.20009   11.70698   14.87857
       H     8.18131   14.59851   12.90790
       O     8.19468   15.19876   12.13974
      H1     8.69243   15.98770   12.43259
       H    10.54248   12.92249   11.57512
       O    11.46484   12.93947   11.83238
      H1    11.39162   13.30446   12.75087
       H     6.92479    8.15064   12.15081
       O     7.43370    7.72642   11.48430
      H1     7.69204    8.47204   10.90624
       H     6.15649   13.58927   16.07560
       O     6.48700   14.20880   16.75137
      H1     6.80037   14.94236   16.18268
       H     9.56467   13.93470    9.86838
       O     9.43053   12.97227    9.82180
      H1     8.72447   12.76763    9.20001
       H     5.59438   13.80897   14.06674
       O     5.43059   14.69488   13.68671
      H1     4.57279   14.89688   14.03202
       H    10.29188   16.15769   10.00809
       O    10.45714   15.34022   10.49809
      H1     9.73065   15.26575   11.12763
       H     6.60965   16.98127   15.38661
       O     7.13482   16.25247   15.07494
      H1     6.56681   15.91927   14.35198
       H     4.66738   11.09824   10.80270
       O     4.83994   12.01842   11.07423
      H1     3.96321   12.29298   11.23966
       H     9.61246   14.09807   14.35873
       O     8.80275   13.63312   14.58067
      H1     8.72669   13.76403   15.52008
       H     7.98311   13.01765   12.18514
       O     7.23966   12.54068   12.55660
      H1     6.62643   12.41764   11.83362
       H     9.73583   10.36741   10.75921
       O     8.83089   10.14320   10.98267
      H1     8.36323   10.99209   10.87715

