60
frame 1 | Written by MDAnalysis XYZWriter (release 2.4.3)
       H    15.62584   16.91470   -1.15916
       O    15.35196   15.99803   -1.15349
      H1    15.08636   15.74230   -2.04865
       H    13.04880    9.22708   -3.87306
       O    13.37630    9.51150   -2.98127
      H1    13.98543   10.24544   -3.13730
       H    18.82204   14.47886   -3.68079
       O    17.91015   14.15758   -3.68421
      H1    17.62305   14.22915   -2.73712
       H    17.37401    9.24143    0.80604
       O    16.63879    9.74427    0.45790
      H1    16.01289    9.78512    1.20426
       H    12.38890    8.78827   -1.56691
       O    11.86813    8.09040   -1.16022
      H1    11.00003    8.23881   -1.54122
       H    15.36455    9.45420   -5.21473
       O    15.53630   10.17775   -5.80715
      H1    16.46204    9.97710   -6.07046
       H    17.33881    9.74628   -2.87680
       O    17.96508   10.25644   -2.34309
      H1    18.48098   10.70561   -3.02325
       H    13.16384   13.11348   -4.44237
       O    12.40377   13.55540   -4.05386
      H1    12.83571   14.35319   -3.74635
       H    16.05317   11.15183   -1.87021
       O    15.18526   11.35123   -2.28486
      H1    14.63952   11.76357   -1.62233
       H    15.72800    8.37905   -0.29276
       O    15.23928    7.58100   -0.55459
      H1    15.88275    6.86916   -0.36582
       H    12.56769   12.95606   -2.39428
       O    12.95816   12.74589   -1.55318
      H1    12.46050   11.99802   -1.22167
       H    11.73428   11.50887    0.31520
       O    12.34838   10.77557    0.15900
      H1    11.82508    9.97907    0.04583
       H    15.14505   11.77403   -4.92605
       O    14.88899   12.68554   -4.70528
      H1    15.01533   12.70321   -3.74431
       H    15.02667    8.45615   -3.33327
       O    15.95540    8.50269   -3.60699
      H1    16.22692    7.58119   -3.47204
       H    16.67347   14.91377   -0.77258
       O    17.47390   14.52036   -1.07228
      H1    17.58367   13.71758   -0.53059
       H    14.16334   12.45116    1.98383
       O    14.53948   11.86379    1.33415
      H1    13.74900   11.55038    0.83104
       H    18.70397   11.97413   -0.57775
       O    18.13713   12.07375    0.20148
      H1    17.40656   11.44157    0.08843
       H    13.62504   15.26316    1.49932
       O    13.60178   16.00741    0.87896
      H1    14.35090   15.86225    0.26709
       H    14.24195    8.44042    0.91212
       O    14.14107    9.04799    1.65039
      H1    13.73447    9.81604    1.23215
       H    12.32447   15.74576   -0.45349
       O    11.83521   15.28645   -1.14288
      H1    12.32457   14.44958   -1.17698

