60
frame 1 | Written by MDAnalysis XYZWriter (release 2.4.3)
       H     7.48263    7.96967  -14.49491
       O     7.87717    7.51531  -15.25864
      H1     8.71046    7.13811  -14.90601
       H     3.95865    2.79830  -13.78272
       O     3.08685    3.06416  -14.01356
      H1     2.97255    3.74941  -13.37903
       H    -1.17541    6.79061  -14.11224
       O    -0.44430    6.15952  -14.12563
      H1    -0.28084    6.02137  -15.07621
       H     2.77685    8.11207  -15.46576
       O     3.53085    7.78056  -14.95451
      H1     3.51776    6.83784  -15.12232
       H     5.17932    3.55901   -9.95850
       O     4.87691    2.60742   -9.76233
      H1     5.26080    2.40538   -8.92069
       H     5.15502    4.87593  -10.95273
       O     5.72549    5.14548  -10.22799
      H1     6.62891    5.04124  -10.53301
       H     6.65021    3.99494  -13.41343
       O     6.20606    4.67335  -13.92641
      H1     5.92649    4.15303  -14.68995
       H     6.36532    4.93615   -7.17686
       O     5.62522    5.42289   -7.55159
      H1     5.72920    5.26655   -8.47174
       H     3.33728    1.64506  -10.80217
       O     2.91747    0.79609  -10.59509
      H1     2.11285    0.82906  -11.15156
       H     1.49654    5.53446  -10.48214
       O     1.73681    6.41933  -10.20858
      H1     1.35406    7.01305  -10.85391
       H     2.09942   10.90586  -12.95823
       O     1.99121    9.97770  -13.16874
      H1     2.92562    9.70789  -13.25163
       H     4.03016    7.94531  -13.24533
       O     4.04102    8.06387  -12.28117
      H1     4.87450    8.52070  -12.16801
       H    -0.24245    4.42426  -12.85294
       O    -0.75989    3.72217  -12.46619
      H1    -0.28951    3.55310  -11.62294
       H     3.95479    6.06290  -12.43169
       O     3.99749    5.07975  -12.55783
      H1     4.67247    5.05750  -13.22939
       H     7.61636    8.99800  -12.24194
       O     7.06434    9.35736  -12.96463
      H1     6.85399   10.24879  -12.63387
       H     2.91799    5.56483   -8.75866
       O     3.09581    4.85902   -8.16534
      H1     4.05278    4.92763   -8.02085
       H     0.08625    7.51868  -12.57807
       O     0.51800    8.07622  -11.87685
      H1     0.97782    8.77655  -12.37673
       H     3.55063    8.15894   -9.85917
       O     3.76067    8.78700   -9.16120
      H1     2.89218    8.85152   -8.74807
       H     3.17906    4.16523  -15.35464
       O     3.23005    5.04957  -15.77409
      H1     2.32408    5.25123  -16.02666
       H     5.20815    9.60802  -14.52371
       O     5.20011   10.58393  -14.44878
      H1     4.97020   10.84390  -15.35771

