60
frame 1 | Written by MDAnalysis XYZWriter (release 2.4.3)
       H    -8.55458   17.68563   -4.95314
       O    -8.50582   18.43601   -5.58513
      H1    -9.30015   18.91991   -5.37815
       H   -11.57779   17.35987   -6.38582
       O   -11.01355   16.59978   -6.21764
      H1   -11.28753   15.92772   -6.88065
       H    -7.95781   16.77376   -1.03849
       O    -7.98168   15.90992   -0.64465
      H1    -7.81313   16.10817    0.27743
       H    -7.70848   15.05390   -3.81202
       O    -6.79976   14.66919   -3.93832
      H1    -6.51298   14.34968   -3.07897
       H    -5.73354   15.45073   -1.21483
       O    -5.10202   16.14649   -1.46372
      H1    -5.22441   16.30392   -2.40131
       H   -13.59330   17.04305   -6.30723
       O   -13.49776   17.95915   -6.58324
      H1   -13.51781   17.86867   -7.53982
       H    -9.75885   15.59951   -1.11086
       O   -10.43156   15.76574   -1.76489
      H1   -11.26993   15.46153   -1.33681
       H    -6.25130   19.15697   -9.29772
       O    -6.36858   18.40277   -9.87654
      H1    -6.12611   17.64976   -9.32606
       H    -7.25305   18.67695   -1.96498
       O    -7.82452   18.52520   -1.21612
      H1    -7.23609   18.51424   -0.43407
       H   -11.65883   14.32307   -9.23400
       O   -11.55733   15.21309   -8.86440
      H1   -10.59745   15.24847   -8.81207
       H    -6.36961   14.26297   -6.72251
       O    -7.20076   14.17233   -7.20516
      H1    -7.83507   14.04216   -6.49114
       H    -9.73526   16.31004   -4.85286
       O    -9.06951   16.06206   -4.17404
      H1    -9.61998   15.96631   -3.38096
       H    -7.64912   17.34772   -6.91493
       O    -7.14646   16.86292   -7.57141
      H1    -7.40392   15.96268   -7.49567
       H    -9.73503   18.32273  -10.66926
       O   -10.39433   17.69467  -10.92434
      H1   -11.12498   17.98185  -10.40165
       H    -3.84060   18.34095   -3.04772
       O    -3.73906   18.99570   -2.35326
      H1    -3.44338   18.42895   -1.62568
       H    -4.39031   16.96751   -5.90326
       O    -4.30807   17.26218   -6.85411
      H1    -4.94097   16.70177   -7.35109
       H    -4.18332   15.95232   -3.68109
       O    -4.61249   16.69633   -4.13566
      H1    -5.42474   16.27499   -4.46361
       H    -9.51593   12.77168   -6.31102
       O    -9.08617   12.95719   -5.45974
      H1    -9.81241   13.39735   -5.01801
       H    -9.35380   16.40044   -9.99878
       O    -8.99019   15.71981   -9.42867
      H1    -8.32966   16.22136   -8.93561
       H   -13.57568   16.48455   -3.58359
       O   -13.04602   15.90269   -4.11942
      H1   -13.62905   15.59159   -4.82063

