60
frame 1 | Written by MDAnalysis XYZWriter (release 2.4.3)
       H    -3.26743   18.65315    2.48377
       O    -3.62438   17.87966    2.97688
      H1    -4.56085   18.13605    3.15093
       H    -3.83401   17.62427    7.92933
       O    -3.41842   17.40800    8.77592
      H1    -3.92926   17.96376    9.40189
       H    -3.69272   15.90306    9.79839
       O    -4.04433   15.17393   10.31874
      H1    -4.99563   15.33459   10.39613
       H    -5.50926   12.15890    5.36641
       O    -5.53721   11.57072    6.13312
      H1    -6.19299   10.87781    5.92781
       H    -5.11606   14.09959    3.19084
       O    -5.50385   13.41769    3.76286
      H1    -6.37580   13.31621    3.35248
       H   -10.25541   17.05777    4.32900
       O   -10.25074   17.15136    5.28539
      H1   -11.02051   17.75730    5.41402
       H    -3.73447   15.87972    2.22127
       O    -3.84079   14.92663    2.19541
      H1    -3.00953   14.60575    2.58581
       H    -3.50561   15.61019    4.59193
       O    -3.13640   15.26303    5.40951
      H1    -3.36044   14.31787    5.44810
       H    -6.35589   12.69208    7.29816
       O    -6.67733   13.53923    7.65856
      H1    -6.25465   14.20717    7.09940
       H    -8.34087   17.82433    7.68437
       O    -8.09283   17.40307    6.84890
      H1    -8.97858   17.17994    6.46574
       H    -9.49417   14.82423    7.35087
       O   -10.02510   14.54100    6.56672
      H1   -10.41348   15.34420    6.22085
       H    -6.12547   17.19449    5.15667
       O    -6.34829   17.69670    4.35888
      H1    -7.10596   18.23287    4.60817
       H    -8.53262   13.42918    3.44306
       O    -7.97010   13.47925    2.65783
      H1    -7.83921   14.44545    2.61665
       H    -1.76982   12.70574    3.29307
       O    -1.96490   13.64176    3.51539
      H1    -2.10358   13.59401    4.48851
       H    -3.03266   12.11528    6.73900
       O    -2.44701   12.58868    6.15326
      H1    -1.57267   12.55235    6.59116
       H    -1.82627   15.72853    7.05236
       O    -0.99429   15.62320    7.52412
      H1    -0.63436   14.84613    7.05330
       H    -3.98244   13.44151    9.41801
       O    -4.37531   12.77809    8.84575
      H1    -5.21610   13.19757    8.61387
       H    -6.87848   16.74902    3.18705
       O    -7.39993   16.29847    2.48331
      H1    -8.24517   16.70309    2.47000
       H    -8.31335   15.60912    9.80500
       O    -7.41202   15.44675   10.08871
      H1    -7.46077   14.52894   10.39925
       H    -6.51589   16.27035    6.87956
       O    -5.81810   15.77651    6.41097
      H1    -5.05045   15.75078    6.97031

