60
frame 1 | Written by MDAnalysis XYZWriter (release 2.4.3)
       H    -0.58055   18.47578  -10.17271
       O    -0.99269   18.55562  -11.04105
      H1    -1.62375   17.83772  -11.14638
       H     1.91640   18.17444   -7.81395
       O     2.85955   18.25434   -7.90735
      H1     3.11339   19.12868   -7.56950
       H     4.22201   12.85652   -8.26986
       O     3.87294   13.65711   -8.68447
      H1     3.09657   13.32025   -9.21490
       H     0.30254   15.88238   -7.86486
       O     0.23103   16.52070   -7.13864
      H1    -0.50226   17.05166   -7.39896
       H     3.19565   15.34853  -12.01134
       O     3.71207   15.10456  -12.76959
      H1     4.54790   14.79956  -12.40574
       H    -0.46598   11.87643  -11.78087
       O    -0.33481   11.99291  -12.70692
      H1    -0.34836   12.96277  -12.93297
       H     3.07806   14.77028   -5.98680
       O     2.76761   14.02933   -5.46357
      H1     2.35613   14.42810   -4.67313
       H     3.63324   15.00929   -7.63834
       O     3.78842   15.80160   -7.08160
      H1     3.09616   16.40284   -7.37337
       H     0.41629   11.81665   -9.93518
       O    -0.52115   11.67478   -9.94705
      H1    -0.57701   10.70328  -10.05234
       H     1.09810   16.24848  -12.11609
       O     1.55522   16.16095  -11.27351
      H1     2.06419   16.97597  -11.18252
       H     4.84442   13.66384  -10.35055
       O     5.63657   13.99533  -10.84487
      H1     5.96751   13.16214  -11.19455
       H     2.67872   12.41620  -11.08368
       O     2.34814   11.87343  -10.32497
      H1     2.84854   11.05617  -10.36546
       H     0.36757   17.88050  -12.57536
       O     0.58672   17.43493  -13.39007
      H1     1.32746   17.91081  -13.70239
       H     0.93573   15.50681   -9.89386
       O     0.76274   14.90892   -9.11813
      H1    -0.14608   14.58489   -9.30299
       H     4.13854   17.67910  -10.84619
       O     3.43050   18.33747  -10.82586
      H1     3.26540   18.59208   -9.88612
       H    -1.79733   13.54027   -8.31598
       O    -2.07638   14.04650   -9.06860
      H1    -2.38669   13.38861   -9.68193
       H    -0.78546   14.60742   -5.78799
       O    -1.06729   14.89153   -4.90328
      H1    -1.19916   15.84016   -4.99716
       H    -2.47078   15.82957  -11.84223
       O    -1.55756   15.49730  -11.84781
      H1    -1.58165   14.62196  -11.43364
       H    -0.55872   15.22208  -13.45248
       O    -0.19120   14.64843  -14.12845
      H1     0.38863   15.20677  -14.65826
       H     0.39965   13.37869   -7.44173
       O    -0.48984   13.18498   -7.17670
      H1    -0.33341   12.42668   -6.61076

