60
frame 1 | Written by MDAnalysis XYZWriter (release 2.4.3)
       H    -4.21157   -6.36323    2.21823
       O    -3.91630   -5.69526    1.59337
      H1    -3.98802   -4.91040    2.12977
       H    -1.91842    0.54367    1.80440
       O    -1.94400    1.09286    2.57193
      H1    -2.52534    0.55765    3.13930
       H    -0.79701   -6.39243    3.67599
       O    -1.51886   -6.87132    4.12781
      H1    -1.55372   -7.70017    3.64782
       H     0.04001   -5.06078    1.75061
       O     0.05942   -5.45833    2.62661
      H1     0.96198   -5.32507    2.96733
       H    -3.99394   -2.15535   -1.36662
       O    -3.34336   -1.84359   -2.02002
      H1    -3.77184   -1.87406   -2.89445
       H    -3.85100   -1.32493    3.37465
       O    -3.91500   -0.55525    3.96339
      H1    -3.86839   -0.97557    4.85321
       H    -1.53512   -0.55162   -1.73763
       O    -0.79520   -0.32543   -2.30935
      H1    -0.05194   -0.69603   -1.80007
       H    -3.53369   -3.70669   -1.77315
       O    -3.46874   -4.48103   -1.18796
      H1    -4.31021   -4.91878   -1.27066
       H    -0.01317   -0.65995    4.12145
       O     0.21956   -1.42835    3.54524
      H1     1.06068   -1.75270    3.87947
       H     0.41507   -3.27280    0.80374
       O     1.09115   -3.96772    0.73488
      H1     1.87050   -3.61270    1.16316
       H    -4.85433   -6.94937   -1.11482
       O    -5.35562   -6.26931   -0.64953
      H1    -4.84007   -6.05335    0.10875
       H    -5.84482   -2.41841    0.08581
       O    -6.12477   -3.12342   -0.52580
      H1    -6.49664   -3.81783    0.04418
       H    -6.18557   -1.18987    1.98028
       O    -5.40749   -1.52158    1.49053
      H1    -5.13347   -2.34033    1.94182
       H    -1.83862   -1.69441    0.68984
       O    -1.67792   -0.79892    0.38537
      H1    -2.60791   -0.45117    0.30247
       H    -0.99224   -2.46821    4.50024
       O    -1.49428   -3.28757    4.40708
      H1    -1.03683   -3.84153    3.78161
       H    -1.04655   -6.09921   -3.22035
       O    -1.70251   -6.43706   -2.59909
      H1    -1.85978   -5.63686   -2.07365
       H    -2.57734   -3.51141    1.58993
       O    -2.12136   -3.48949    0.76625
      H1    -2.73849   -4.05718    0.20994
       H    -1.87313   -6.86282    0.85467
       O    -1.54196   -7.51786    0.21611
      H1    -1.86220   -7.17885   -0.62510
       H     1.12383   -2.61753   -2.25098
       O     0.90571   -3.53944   -2.11681
      H1     1.04432   -3.61709   -1.18424
       H    -4.72625   -3.86521    3.65579
       O    -4.04538   -3.48442    3.08126
      H1    -3.29546   -3.41243    3.71825

