60
frame 1 | Written by MDAnalysis XYZWriter (release 2.4.3)
       H    11.42863  -14.57634   -9.06798
       O    11.00123  -13.74753   -9.23472
      H1    11.72356  -13.19488   -9.58373
       H     7.39724  -15.07013   -8.13939
       O     6.81674  -15.51612   -7.49735
      H1     7.45419  -15.92841   -6.86409
       H     7.44414  -18.50314  -12.77083
       O     6.80841  -18.91443  -13.38352
      H1     6.01044  -18.49097  -13.06549
       H    11.84185  -18.39831  -10.60122
       O    11.14835  -17.86802  -10.97725
      H1    11.37862  -17.72706  -11.90085
       H     6.47080  -18.01804  -15.42556
       O     6.70335  -17.11125  -15.78096
      H1     6.01484  -16.95720  -16.43940
       H     7.35330  -13.67045  -12.20566
       O     7.34225  -12.72603  -11.90615
      H1     7.66746  -12.24578  -12.66171
       H     7.87149  -13.99428   -9.93645
       O     8.40257  -13.81802   -9.13271
      H1     9.35802  -13.82753   -9.43661
       H     9.16387  -18.04242  -11.26064
       O     8.27103  -17.72227  -11.30430
      H1     8.36944  -16.78398  -11.22255
       H     9.98168  -17.08833  -15.65433
       O     9.95438  -17.07047  -14.67768
      H1    10.62280  -17.76602  -14.49961
       H     5.55262  -14.85886  -14.36561
       O     4.79314  -15.19189  -13.85240
      H1     4.89807  -16.14350  -13.77986
       H    12.25812  -16.73882  -10.01782
       O    12.46547  -16.04636   -9.40345
      H1    13.36691  -15.79624   -9.66644
       H     6.38805  -14.07994  -16.54998
       O     6.62518  -14.32676  -15.64261
      H1     6.60017  -15.28768  -15.62375
       H     4.94513  -13.31761   -8.21587
       O     4.84337  -13.58751   -9.16647
      H1     4.16697  -14.26010   -9.13678
       H    11.53128  -17.09750   -7.85495
       O    11.04654  -17.48477   -7.11821
      H1    10.22632  -17.85439   -7.54324
       H    10.14660  -14.01090  -12.23866
       O    10.89956  -13.44550  -12.41888
      H1    10.48244  -12.58939  -12.63050
       H     9.33600  -15.32816  -13.38555
       O     8.85358  -15.15709  -12.58147
      H1     8.04455  -15.66132  -12.73219
       H     5.29750  -17.64984   -9.13266
       O     5.75066  -17.59911   -9.97025
      H1     6.70349  -17.65324   -9.79644
       H     5.57160  -14.48914  -10.64277
       O     6.19015  -15.17904  -10.92847
      H1     5.76300  -15.94154  -10.55614
       H     3.70010  -18.33945  -11.93914
       O     3.89586  -17.63357  -12.56064
      H1     4.41532  -16.99587  -12.05492
       H     8.10913  -19.17565   -8.16354
       O     8.30922  -18.28502   -7.89833
      H1     7.61734  -18.05837   -7.23081

