60
frame 1 | Written by MDAnalysis XYZWriter (release 2.4.3)
       H     3.97621   11.89634  -13.35982
       O     3.52016   12.39826  -12.69552
      H1     3.52706   13.29093  -13.02161
       H     3.20931   11.53229  -17.01709
       O     3.98816   11.05539  -16.69345
      H1     4.45024   10.87578  -17.52846
       H     0.34404   12.46355  -16.61422
       O     0.40717   12.62701  -17.56770
      H1    -0.01115   11.82664  -17.89705
       H     2.77685    8.11207  -15.46576
       O     3.53085    7.78056  -14.95451
      H1     3.51776    6.83784  -15.12232
       H    -0.46598   11.87643  -11.78087
       O    -0.33481   11.99291  -12.70692
      H1    -0.34836   12.96277  -12.93297
       H    -3.49395   14.23026  -14.98133
       O    -2.74891   14.03632  -15.56844
      H1    -2.02861   13.83241  -14.95457
       H    -0.96641   16.94099  -15.02475
       O    -1.45079   17.09595  -15.85170
      H1    -0.84621   16.71631  -16.50481
       H     2.32758   13.29516  -18.21797
       O     3.02243   13.49366  -18.83813
      H1     3.77421   13.68487  -18.26019
       H     1.17089    9.91099  -18.76695
       O     0.24352    9.82118  -18.58676
      H1    -0.03194    9.04563  -19.06875
       H    -0.29569   10.95932  -14.84963
       O     0.49719   11.37651  -15.18231
      H1     1.19550   10.78555  -14.84060
       H     1.08219    9.05462  -17.20303
       O     1.68947    8.35164  -16.92230
      H1     1.50775    7.69874  -17.63021
       H    -2.03995   11.22099  -13.83215
       O    -2.44920   10.86755  -14.59759
      H1    -3.38734   11.08602  -14.44092
       H     2.09942   10.90586  -12.95823
       O     1.99121    9.97770  -13.16874
      H1     2.92562    9.70789  -13.25163
       H    -0.55872   15.22208  -13.45248
       O    -0.19120   14.64843  -14.12845
      H1     0.38863   15.20677  -14.65826
       H     1.56586   14.56429  -17.05064
       O     1.29944   15.39907  -16.65686
      H1     2.11687   15.81917  -16.37434
       H    -2.33177   10.30327  -17.99039
       O    -2.55728    9.73065  -17.25936
      H1    -2.38062   10.28843  -16.50204
       H    -1.95725   14.87686  -17.10537
       O    -1.40644   14.88085  -17.93185
      H1    -0.83985   14.11686  -17.73817
       H     4.38549   16.63870  -15.63265
       O     3.76640   15.90990  -15.64029
      H1     3.66013   15.68310  -14.68497
       H     5.20815    9.60802  -14.52371
       O     5.20011   10.58393  -14.44878
      H1     4.97020   10.84390  -15.35771
       H    -2.98898    8.17942  -13.03901
       O    -2.19914    8.18381  -13.60256
      H1    -2.21595    9.06824  -13.98151

