60
frame 1 | Written by MDAnalysis XYZWriter (release 2.4.3)
       H     9.02234    9.33590    3.19091
       O     8.76539   10.09337    3.72333
      H1     9.29469    9.98981    4.51906
       H     5.25594    9.57168   -1.87856
       O     4.67928    8.81065   -1.93081
      H1     5.21464    8.04712   -1.66752
       H     6.36196    7.32139    4.86027
       O     6.63161    6.91994    4.00626
      H1     5.78169    6.60623    3.68507
       H     8.10997    6.59877    5.05916
       O     9.03119    6.42710    5.35357
      H1     8.95993    6.28228    6.29053
       H     7.08390   10.62359    4.42214
       O     6.27757   11.07908    4.70463
      H1     5.58589   10.67985    4.15482
       H     7.92578   12.98880    2.38909
       O     8.73629   12.76865    2.88905
      H1     8.71561   11.80162    2.97759
       H     5.94311    8.13737    7.12907
       O     6.10479    8.26068    6.19412
      H1     6.68780    9.05628    6.15754
       H     6.26126    8.04514    0.16699
       O     6.40911    7.32001   -0.45033
      H1     7.33674    7.23572   -0.58664
       H     9.29377    7.10525    2.44914
       O     9.60109    7.98106    2.14594
      H1    10.55663    7.86560    2.18754
       H     4.30614    4.61089   -0.18051
       O     4.13593    5.54460   -0.25326
      H1     5.04145    5.86603   -0.31221
       H     4.16946    5.94912    1.55421
       O     4.40366    6.41942    2.34783
      H1     3.59284    6.32400    2.85580
       H     5.41248    4.23903    2.53566
       O     5.08109    3.42398    2.97601
      H1     4.32133    3.70939    3.49430
       H     2.06590    8.73481    0.70934
       O     2.37846    9.54235    0.29693
      H1     3.16568    9.26363   -0.20664
       H     7.61552    4.60382    1.24555
       O     6.94582    4.83676    0.56734
      H1     6.74237    5.73875    0.79032
       H     9.34479    6.79671   -0.90998
       O     9.06748    7.70882   -0.75727
      H1     9.32302    7.88083    0.15074
       H     6.62478    8.26166    2.69526
       O     6.45949    8.89835    1.99243
      H1     5.57022    9.24402    2.17637
       H     8.63447    5.42702    3.44082
       O     8.83577    5.45324    2.49911
      H1     9.64738    4.92981    2.39523
       H     6.54060   10.48783    0.69914
       O     6.25393   11.24969    0.17939
      H1     6.76664   12.01627    0.47997
       H     4.92222   12.53702    6.85937
       O     5.43878   11.81849    7.23560
      H1     5.88198   11.46634    6.44686
       H     3.39580    9.89489    1.84266
       O     4.14185   10.24603    2.33367
      H1     4.49814   10.92679    1.77973

