60
frame 1 | Written by MDAnalysis XYZWriter (release 2.4.3)
       H    -2.46889   -4.12451   11.53016
       O    -2.29794   -4.50972   12.40775
      H1    -3.02971   -4.16787   12.95037
       H     3.08874   -5.90142   16.93198
       O     3.30621   -6.18697   16.04048
      H1     3.65135   -5.37351   15.64034
       H     1.33696   -7.73095   13.80555
       O     1.95479   -6.99452   13.75488
      H1     2.22542   -6.92849   14.66550
       H    -1.01585   -7.13915   17.51493
       O    -0.63937   -6.80499   16.67685
      H1    -0.86164   -7.51641   16.04532
       H     0.61507  -10.78881   16.06401
       O     1.15173  -10.46889   16.84606
      H1     1.54588   -9.64834   16.53219
       H    -3.23586   -9.33020   11.83086
       O    -2.27361   -9.52280   11.85179
      H1    -1.98382   -9.28555   10.95715
       H     1.50182   -5.10477   14.07991
       O     1.44307   -4.12649   14.17000
      H1     1.94401   -3.89422   14.97709
       H    -5.33022   -7.44999   15.91749
       O    -5.90328   -7.38205   16.69554
      H1    -6.81179   -7.37432   16.32359
       H    -4.90469   -8.12837   18.18427
       O    -4.83697   -8.78038   18.89005
      H1    -3.91356   -9.11979   18.79476
       H    -0.00993   -4.91763   16.68900
       O    -0.03107   -3.97601   16.46535
      H1     0.13636   -3.99810   15.50656
       H    -2.61261   -4.71564   18.14025
       O    -3.40476   -5.23748   18.46004
      H1    -3.01857   -5.77030   19.17228
       H    -2.31091  -10.81179   18.38379
       O    -2.46072   -9.88410   18.29533
      H1    -2.43523   -9.72928   17.33795
       H    -1.99939   -8.14416   12.74578
       O    -1.59411   -7.42395   13.25574
      H1    -1.77437   -6.60681   12.76124
       H    -4.22277   -4.64100   14.88743
       O    -3.86741   -3.79767   14.59294
      H1    -3.18736   -3.57545   15.23906
       H     0.69754  -12.53264   15.09862
       O    -0.02480  -11.93148   14.95288
      H1    -0.15309  -11.90096   13.98389
       H    -2.58160   -8.85716   15.29842
       O    -2.15901   -9.66154   15.59604
      H1    -1.68899   -9.99640   14.83864
       H     0.19592  -11.80195   18.04699
       O    -0.13646  -12.69713   18.09619
      H1    -0.89540  -12.63200   18.63639
       H     0.58676  -10.01888   18.49784
       O     0.23863  -10.26614   19.37318
      H1    -0.65010   -9.91670   19.28856
       H    -2.85831   -6.68733   14.66711
       O    -3.52529   -6.80239   15.32381
      H1    -3.17627   -6.34784   16.14636
       H     1.94281   -9.70282   12.70505
       O     1.07516   -9.48487   13.08472
      H1     0.51670   -9.34424   12.33377

