60
frame 1 | Written by MDAnalysis XYZWriter (release 2.4.3)
       H    14.34062  -15.74064   11.13681
       O    15.04976  -16.25293   10.69193
      H1    15.22207  -17.01532   11.28382
       H    13.41307  -14.03809    5.64494
       O    13.92235  -13.71095    6.42940
      H1    14.01844  -14.54179    6.91287
       H    15.29178  -12.08064    9.71429
       O    14.51216  -12.56911    9.41270
      H1    14.78035  -13.30752    8.85929
       H    16.94033  -14.25100    7.09703
       O    17.38782  -14.05920    7.91922
      H1    18.11297  -13.43798    7.66771
       H    17.25282  -17.01196    9.05655
       O    17.01185  -16.85780    8.12366
      H1    17.33655  -15.99219    7.88696
       H    13.60046  -17.58229    8.97029
       O    13.26514  -18.47375    9.15049
      H1    14.03941  -19.00706    9.01561
       H    14.98488  -18.51707    6.31605
       O    15.58882  -18.87222    6.96434
      H1    16.15291  -18.11674    7.17762
       H    15.86756  -19.27979   12.76963
       O    15.78764  -18.32522   12.54803
      H1    15.40473  -17.98196   13.36293
       H    17.08363  -11.33258   12.18971
       O    16.50888  -11.88047   12.75047
      H1    15.72543  -11.33898   12.90381
       H    13.66014  -17.66740   15.12988
       O    12.76044  -17.96007   15.09026
      H1    12.34090  -17.23956   14.57015
       H    11.63973  -14.99716    9.22605
       O    10.67343  -15.00798    9.20586
      H1    10.49637  -14.74958   10.12445
       H    15.57578  -16.06386   15.17438
       O    15.23944  -16.98016   15.25970
      H1    15.42657  -17.11180   16.20153
       H    13.96518  -13.91699   15.40113
       O    14.30701  -13.73028   14.51058
      H1    13.70248  -14.19431   13.90248
       H    16.14427  -14.90832   11.74081
       O    16.96673  -14.48319   11.95662
      H1    16.75368  -13.56534   12.13342
       H    17.57485  -11.53563    9.59823
       O    16.85362  -11.45770    8.94395
      H1    16.86605  -12.35529    8.58344
       H    13.71673  -16.70960    6.82497
       O    14.19886  -16.28455    7.51204
      H1    15.12600  -16.49480    7.31281
       H    17.24748  -14.95693   13.48049
       O    17.63713  -15.17633   14.31384
      H1    17.09374  -14.64745   14.91405
       H    17.58076  -17.83195   11.89673
       O    18.02193  -17.13862   11.35255
      H1    17.77229  -16.27846   11.70242
       H    11.83954  -12.58151   11.50229
       O    12.21270  -13.20331   10.83603
      H1    13.07191  -12.78024   10.62642
       H    12.83770  -15.59943   12.43300
       O    13.50602  -14.94208   12.27696
      H1    13.06738  -14.20825   11.79204

