60
frame 1 | Written by MDAnalysis XYZWriter (release 2.4.3)
       H   -12.47730  -10.78471   -3.64803
       O   -11.71917  -11.36143   -3.76300
      H1   -11.81739  -11.64476   -4.69280
       H    -8.60137  -10.74861    2.05822
       O    -8.25208  -11.59859    2.33241
      H1    -7.64514  -11.84621    1.62650
       H    -8.05375  -12.74220   -3.60335
       O    -8.86374  -12.97313   -4.11646
      H1    -8.68537  -13.87951   -4.33860
       H    -7.44416   -8.69867   -0.47856
       O    -7.52649   -8.01205    0.20385
      H1    -6.77842   -7.44054   -0.06458
       H   -12.11847  -11.83521    1.23421
       O   -12.77754  -11.22648    0.88535
      H1   -13.24830  -10.95091    1.69473
       H    -9.79703  -12.40218    1.57518
       O   -10.59547  -12.92843    1.49536
      H1   -10.39029  -13.40659    0.69683
       H   -13.77449  -12.14633   -3.13938
       O   -13.99758  -12.87770   -3.74816
      H1   -14.51886  -12.46307   -4.42780
       H   -10.86548  -10.17523   -2.35380
       O   -10.46626   -9.93762   -1.49851
      H1   -10.04269  -10.76278   -1.20789
       H   -11.26686   -8.42287    0.35912
       O   -11.44130   -8.73007    1.22680
      H1   -11.65648   -9.67855    1.13241
       H    -8.86907   -7.03441   -0.25864
       O    -9.40077   -6.22147   -0.19242
      H1   -10.22093   -6.51710   -0.62778
       H   -12.87834  -13.14672    0.36432
       O   -12.92331  -14.01383   -0.07677
      H1   -13.87456  -14.10561   -0.22384
       H   -12.66322  -10.28419   -1.37605
       O   -13.43869  -10.38396   -1.93488
      H1   -13.93765   -9.56918   -1.79378
       H   -11.20064  -12.96876   -3.09960
       O   -11.20200  -13.61751   -2.38519
      H1   -12.10662  -13.62250   -2.09085
       H   -10.47050   -9.91357   -3.96907
       O   -10.04200   -9.06325   -4.12711
      H1    -9.35144   -9.28649   -4.80826
       H   -11.98689   -8.01484   -1.60052
       O   -11.83082   -7.18577   -1.18357
      H1   -12.53534   -7.06112   -0.53459
       H    -8.36921   -8.51299    1.86358
       O    -8.83442   -8.65324    2.70759
      H1    -9.76639   -8.91441    2.47502
       H    -8.66983   -9.61747   -2.29216
       O    -7.75080   -9.59813   -2.04450
      H1    -7.37372   -8.95906   -2.65542
       H    -7.46956  -10.45086   -5.21085
       O    -8.22151  -10.49830   -5.82177
      H1    -8.66151  -11.27348   -5.42388
       H    -6.15181  -12.24257   -2.71089
       O    -6.92666  -12.33705   -2.13041
      H1    -7.22194  -11.43391   -1.97282
       H    -8.46692  -12.59799   -1.23238
       O    -9.28424  -12.33451   -0.81371
      H1    -9.95847  -12.72131   -1.39386

