60
frame 1 | Written by MDAnalysis XYZWriter (release 2.4.3)
       H    -0.81433    4.72015    4.64526
       O    -0.34776    5.57702    4.75277
      H1    -0.84032    6.15966    4.17935
       H    -0.89871    9.51582    6.93211
       O    -0.44090   10.26299    7.33961
      H1     0.23039   10.50236    6.69108
       H     1.31547   12.27050    5.61844
       O     1.83729   11.52740    5.27775
      H1     2.12892   11.14171    6.12488
       H    -0.91156    7.65712    5.92674
       O    -1.54161    7.91386    6.61946
      H1    -1.90390    7.03715    6.83541
       H     1.18278   14.38909    2.36484
       O     0.27638   14.71338    2.21736
      H1    -0.26437   14.06115    2.68333
       H    -0.77256    9.93221    3.88562
       O    -0.24829    9.20305    4.21575
      H1     0.58068    9.23485    3.72133
       H     2.06590    8.73481    0.70934
       O     2.37846    9.54235    0.29693
      H1     3.16568    9.26363   -0.20664
       H     0.56014   11.63044    2.15062
       O     0.01381   11.79541    2.91194
      H1     0.63512   11.78167    3.67129
       H    -1.76982   12.70574    3.29307
       O    -1.96490   13.64176    3.51539
      H1    -2.10358   13.59401    4.48851
       H    -4.88960    8.84117    3.07693
       O    -4.51709    8.14248    3.62281
      H1    -3.55316    8.32635    3.63599
       H    -4.32547    8.25109    5.31516
       O    -4.11443    8.34251    6.26878
      H1    -3.16976    8.53100    6.29076
       H     0.77998   10.59414   -0.09950
       O    -0.03397   11.11035   -0.20114
      H1     0.25594   12.01828   -0.30126
       H    -3.03266   12.11528    6.73900
       O    -2.44701   12.58868    6.15326
      H1    -1.57267   12.55235    6.59116
       H    -2.23549    7.29501    2.56756
       O    -1.96878    7.17350    3.48264
      H1    -1.36750    7.94419    3.65931
       H    -2.66635    8.49933    0.57741
       O    -2.87971    7.63581    0.91259
      H1    -2.29745    7.10463    0.34285
       H     2.94307   13.02683    2.26336
       O     2.83543   13.15224    3.22746
      H1     2.84693   12.27157    3.60619
       H    -3.20107   10.67522    3.69721
       O    -2.44820   10.56904    4.31890
      H1    -2.56085   11.26437    4.97248
       H    -3.32004   11.00374   -0.57991
       O    -2.96098   10.64569    0.24442
      H1    -2.00755   10.80954    0.13646
       H    -4.13035   11.22801    1.82040
       O    -4.58542   11.07481    2.65327
      H1    -4.96183   11.92946    2.88371
       H     0.68087    7.37608    0.92346
       O     1.06067    7.56667    1.81287
      H1     1.00389    6.71795    2.31576

