60
frame 1 | Written by MDAnalysis XYZWriter (release 2.4.3)
       H    16.40112   -0.16851  -10.22491
       O    16.02491    0.62634   -9.80088
      H1    15.05443    0.50718   -9.86385
       H    10.38926   -3.86630  -11.09266
       O     9.97204   -2.99156  -10.92575
      H1    10.07245   -2.87518   -9.95045
       H    13.73238   -2.79203  -11.36872
       O    14.57644   -3.20664  -11.24549
      H1    15.16102   -2.44794  -11.16484
       H    13.09930    1.48954   -5.83981
       O    12.42881    1.13688   -6.45262
      H1    12.76119    0.24422   -6.67814
       H    14.91341   -5.82600   -6.46215
       O    15.04474   -5.76685   -7.40505
      H1    15.12620   -4.81095   -7.53991
       H    15.80937   -0.31210   -6.24175
       O    15.68128   -1.25265   -6.34950
      H1    15.63293   -1.58689   -5.45969
       H     9.06183   -0.88567   -5.11387
       O     9.20220   -1.05811   -4.16149
      H1    10.12778   -1.38851   -4.13488
       H    11.48809   -5.44139   -8.65536
       O    10.84957   -5.12382   -9.30405
      H1    10.20373   -4.66922   -8.77292
       H     8.08917    0.66621   -5.79552
       O     8.46219    0.00949   -6.40207
      H1     9.11094    0.54219   -6.87261
       H    11.78917   -2.77477   -2.70725
       O    12.01635   -2.01365   -3.26039
      H1    12.46249   -2.42035   -4.01182
       H    12.13830   -1.58654   -8.01098
       O    13.02026   -1.37903   -7.66976
      H1    13.61052   -1.86228   -8.23515
       H    11.45805   -2.02298  -10.99327
       O    12.17282   -1.51435  -11.34494
      H1    12.32279   -0.77399  -10.72603
       H    13.00272   -3.97785   -5.79437
       O    13.46270   -3.24459   -5.41480
      H1    13.57491   -2.64460   -6.14799
       H    14.55180   -3.41220   -9.32741
       O    14.87829   -3.28535   -8.42978
      H1    15.81422   -3.16028   -8.53888
       H     9.93197   -3.74426   -5.19737
       O    10.59598   -3.64710   -5.91711
      H1    10.92748   -4.54665   -6.12618
       H     9.36877    0.16119  -11.67082
       O    10.12543    0.68266  -11.35809
      H1    10.83722    0.08130  -11.52970
       H    12.18258    1.08394   -9.44622
       O    12.93660    0.48489   -9.61899
      H1    13.06394    0.00741   -8.76162
       H    10.14274   -1.31630   -8.21885
       O    10.39995   -2.24259   -8.30433
      H1    10.31755   -2.57687   -7.39571
       H    13.41583   -5.83803   -7.33549
       O    12.48532   -5.60807   -7.04817
      H1    12.06790   -6.47072   -6.80308
       H    10.03617    0.83317   -9.43031
       O    10.27770    0.67519   -8.52349
      H1    10.85806    1.41428   -8.29309

