60
frame 1 | Written by MDAnalysis XYZWriter (release 2.4.3)
       H    17.48234    8.04727    8.07464
       O    18.23096    8.55527    7.79023
      H1    18.52265    8.11770    6.96163
       H    17.37401    9.24143    0.80604
       O    16.63879    9.74427    0.45790
      H1    16.01289    9.78512    1.20426
       H    17.27912    4.85859   -0.12054
       O    17.81701    5.60560    0.14319
      H1    18.05863    5.31733    1.04864
       H    13.04278    7.89228    2.52997
       O    12.54350    7.12041    2.67968
      H1    12.25457    7.18136    3.62100
       H    18.13859    5.85188    2.77504
       O    19.07023    5.83593    2.53787
      H1    19.29802    4.89230    2.66522
       H    15.72800    8.37905   -0.29276
       O    15.23928    7.58100   -0.55459
      H1    15.88275    6.86916   -0.36582
       H    19.51874    0.97600    5.91604
       O    19.09106    1.83758    5.99063
      H1    18.19970    1.60008    6.28629
       H    13.99561    6.28344    2.10913
       O    14.60464    5.53473    2.08356
      H1    14.93236    5.62997    1.17028
       H    18.09235   11.79485    3.33667
       O    18.76312   11.27816    2.85681
      H1    18.52988   11.45564    1.94853
       H    18.13547    2.99582    1.12633
       O    17.87133    3.29590    1.98681
      H1    16.89853    3.34308    1.88477
       H    18.21953    5.58995   -2.54202
       O    17.94563    6.47407   -2.82464
      H1    18.38932    7.10601   -2.23756
       H    16.09079    4.06153    6.40840
       O    15.45477    4.76004    6.24838
      H1    15.91146    5.27504    5.59854
       H    14.05765    9.37507    3.76999
       O    13.39307    9.36199    4.48438
      H1    12.92899   10.16896    4.39890
       H    17.62514    1.56787    2.16488
       O    17.52044    0.59455    2.22336
      H1    16.67406    0.51492    2.66716
       H    15.79384    6.09604    3.44018
       O    16.57096    6.53053    3.83993
      H1    16.33042    7.43998    3.96486
       H    15.84817    1.46320    1.14245
       O    15.85388    1.98924    0.32849
      H1    14.91690    2.15524    0.13231
       H    14.35723    3.37950    5.26958
       O    13.79639    2.68831    4.82932
      H1    13.90993    1.96069    5.43496
       H    14.80374    3.97956   -0.33617
       O    15.38318    4.67270   -0.69468
      H1    15.75795    4.25342   -1.49604
       H    14.24195    8.44042    0.91212
       O    14.14107    9.04799    1.65039
      H1    13.73447    9.81604    1.23215
       H    16.02057    9.69630    4.87632
       O    16.31811    9.35829    4.03335
      H1    17.18639    9.76916    3.96628

