60
frame 1 | Written by MDAnalysis XYZWriter (release 2.4.3)
       H    -1.17541    6.79061  -14.11224
       O    -0.44430    6.15952  -14.12563
      H1    -0.28084    6.02137  -15.07621
       H     3.20931   11.53229  -17.01709
       O     3.98816   11.05539  -16.69345
      H1     4.45024   10.87578  -17.52846
       H     0.34404   12.46355  -16.61422
       O     0.40717   12.62701  -17.56770
      H1    -0.01115   11.82664  -17.89705
       H     2.77685    8.11207  -15.46576
       O     3.53085    7.78056  -14.95451
      H1     3.51776    6.83784  -15.12232
       H    -4.25511    9.97308  -17.64376
       O    -5.19457    9.77305  -17.63574
      H1    -5.29810    9.10880  -18.31384
       H    -3.86617    5.65000  -13.83112
       O    -3.37337    5.97262  -14.62718
      H1    -3.30686    6.90936  -14.45077
       H    -2.34691    5.72435  -18.01987
       O    -1.68206    5.39608  -18.60528
      H1    -1.77737    4.43690  -18.62929
       H     2.32758   13.29516  -18.21797
       O     3.02243   13.49366  -18.83813
      H1     3.77421   13.68487  -18.26019
       H     1.17089    9.91099  -18.76695
       O     0.24352    9.82118  -18.58676
      H1    -0.03194    9.04563  -19.06875
       H    -0.29569   10.95932  -14.84963
       O     0.49719   11.37651  -15.18231
      H1     1.19550   10.78555  -14.84060
       H     1.08219    9.05462  -17.20303
       O     1.68947    8.35164  -16.92230
      H1     1.50775    7.69874  -17.63021
       H    -2.03995   11.22099  -13.83215
       O    -2.44920   10.86755  -14.59759
      H1    -3.38734   11.08602  -14.44092
       H     0.66679    5.13034  -17.61534
       O     0.63056    4.86064  -16.67482
      H1    -0.29727    4.71583  -16.53745
       H     5.01218    8.09153  -16.75722
       O     5.76971    7.73993  -17.22861
      H1     6.39164    7.62416  -16.51956
       H    -2.77275    7.92557  -17.23060
       O    -3.16762    7.04939  -17.19179
      H1    -3.08154    6.81038  -16.27299
       H     4.37608    5.28372  -18.72116
       O     4.86660    5.94846  -19.20260
      H1     5.27105    6.44780  -18.47241
       H    -2.33177   10.30327  -17.99039
       O    -2.55728    9.73065  -17.25936
      H1    -2.38062   10.28843  -16.50204
       H    -1.95725   14.87686  -17.10537
       O    -1.40644   14.88085  -17.93185
      H1    -0.83985   14.11686  -17.73817
       H     3.17906    4.16523  -15.35464
       O     3.23005    5.04957  -15.77409
      H1     2.32408    5.25123  -16.02666
       H    -2.98898    8.17942  -13.03901
       O    -2.19914    8.18381  -13.60256
      H1    -2.21595    9.06824  -13.98151

