60
frame 1 | Written by MDAnalysis XYZWriter (release 2.4.3)
       H    15.23888   12.31522    7.72110
       O    15.13035   12.26011    6.77047
      H1    15.47156   11.40692    6.51996
       H    17.48234    8.04727    8.07464
       O    18.23096    8.55527    7.79023
      H1    18.52265    8.11770    6.96163
       H    14.78020   13.83939    9.27803
       O    14.38870   12.96886    9.36984
      H1    13.46473   13.15053    9.16668
       H    17.98528   13.68550    4.44405
       O    17.22213   13.15482    4.10555
      H1    16.82469   12.74602    4.88819
       H    14.44766    5.58570    7.51460
       O    13.84125    6.02654    8.11850
      H1    13.44094    5.31677    8.65719
       H    17.77850    4.79073    9.13664
       O    16.90798    4.57591    8.84895
      H1    16.48823    4.17727    9.63215
       H    16.17474    6.54455    9.21374
       O    16.20682    7.53358    9.14900
      H1    15.83174    7.82252    9.99085
       H    14.99246    7.75966   12.36643
       O    15.48587    8.34338   11.76680
      H1    15.00200    9.16311   11.81099
       H    14.58870    9.75101    9.10140
       O    13.95893    9.26854    8.55338
      H1    14.38625    8.42939    8.34935
       H    10.74802    9.90571    7.85464
       O    11.45968   10.56499    7.96021
      H1    12.28993   10.01800    7.85345
       H    18.09235   11.79485    3.33667
       O    18.76312   11.27816    2.85681
      H1    18.52988   11.45564    1.94853
       H    11.98209    7.77420    5.36488
       O    11.68640    6.88014    5.35288
      H1    10.72096    6.95380    5.26131
       H    18.90749   11.35954    8.77211
       O    18.22008   11.50093    8.09112
      H1    18.18303   10.66315    7.63330
       H    16.09079    4.06153    6.40840
       O    15.45477    4.76004    6.24838
      H1    15.91146    5.27504    5.59854
       H    14.05765    9.37507    3.76999
       O    13.39307    9.36199    4.48438
      H1    12.92899   10.16896    4.39890
       H    15.79384    6.09604    3.44018
       O    16.57096    6.53053    3.83993
      H1    16.33042    7.43998    3.96486
       H    17.02530   10.63275   11.59986
       O    17.43336   10.39075   12.46089
      H1    16.84710    9.63478   12.72349
       H    16.58276    9.03767    7.24047
       O    15.91654    9.54873    6.72891
      H1    15.09615    9.37942    7.21488
       H    16.98216   10.90888    9.50807
       O    16.16374   10.72843    9.99003
      H1    15.71098   11.57974    9.98117
       H    16.02057    9.69630    4.87632
       O    16.31811    9.35829    4.03335
      H1    17.18639    9.76916    3.96628

