60
frame 1 | Written by MDAnalysis XYZWriter (release 2.4.3)
       H    -4.98384    7.43623   -8.11908
       O    -5.47685    8.25692   -8.09144
      H1    -6.15302    8.16250   -8.77259
       H    -7.38498    7.26186  -10.08421
       O    -7.19541    8.18216  -10.25240
      H1    -7.98036    8.60151   -9.90505
       H    -4.27581    9.45890   -5.89148
       O    -4.69690    9.39224   -5.02567
      H1    -3.99130    9.23870   -4.38963
       H    -5.76736   12.24941   -5.12588
       O    -4.78389   12.30124   -5.09623
      H1    -4.48895   11.38913   -5.13315
       H    -9.00734   11.42294   -7.82673
       O    -9.59548   12.18925   -7.98032
      H1   -10.47828   11.86143   -7.75314
       H    -6.11580   12.95891   -8.28380
       O    -5.72520   12.21283   -8.76737
      H1    -4.86550   12.03761   -8.41367
       H    -2.25073    6.11937   -7.80614
       O    -2.99902    6.41877   -7.23900
      H1    -2.75113    7.31315   -6.91919
       H    -6.15119    6.60287   -2.06778
       O    -6.13115    6.90982   -2.95801
      H1    -5.34879    6.51249   -3.34365
       H   -10.31071    5.51023   -4.07848
       O    -9.65521    4.83938   -4.22187
      H1    -8.97806    5.29260   -4.72042
       H    -7.13059    5.59986   -7.84512
       O    -7.10242    5.65621   -8.79968
      H1    -7.84589    5.09132   -9.06011
       H    -4.21095    4.63164   -8.57080
       O    -4.58492    4.83497   -9.46763
      H1    -5.49056    5.04453   -9.20329
       H    -7.21953    6.55446   -5.77248
       O    -7.50331    5.65926   -5.93460
      H1    -6.95278    5.17505   -5.30018
       H    -7.96626   12.18873   -4.20310
       O    -7.53958   11.42014   -3.79111
      H1    -8.06042   10.73208   -4.20693
       H   -10.33611    8.72281   -5.80204
       O   -10.80597    8.32830   -6.55294
      H1   -10.08895    7.96070   -7.07516
       H    -9.48057   10.61155   -5.43632
       O    -9.56114    9.87379   -4.80017
      H1   -10.19526   10.18783   -4.18063
       H    -2.94013    8.84445   -9.85930
       O    -3.78352    9.23394  -10.10740
      H1    -4.35742    8.88930   -9.40490
       H    -6.54885    8.22938   -6.52364
       O    -7.26766    8.25624   -5.82177
      H1    -6.72492    8.31724   -5.03898
       H    -6.74112   10.97683   -8.15224
       O    -7.51845   10.42928   -7.91328
      H1    -7.26353   10.05045   -7.07264
       H    -8.51972    6.83340   -2.50957
       O    -9.00311    7.65731   -2.68147
      H1    -8.84053    7.89266   -3.59432
       H   -10.21403    5.70675   -8.38367
       O   -10.02295    6.66206   -8.59848
      H1   -10.69872    6.85894   -9.27086

