60
frame 0 | Written by MDAnalysis XYZWriter (release 2.4.3)
       H     1.39898   -2.34702  -16.02329
       O     0.88290   -2.04692  -15.27375
      H1     0.94973   -2.70390  -14.55465
       H     7.55854   -7.18952  -11.31105
       O     7.94025   -6.63461  -11.99255
      H1     7.25296   -6.01541  -12.25609
       H     3.66094   -0.80779  -16.40448
       O     3.64223   -0.61535  -15.47557
      H1     2.79678   -0.15157  -15.37184
       H     4.60338   -8.03920  -11.64626
       O     5.14339   -8.08224  -10.84864
      H1     5.09593   -9.01210  -10.61426
       H     2.57476   -5.44608  -13.78998
       O     1.87949   -5.63644  -13.15458
      H1     1.13712   -5.99815  -13.67041
       H     5.72946   -6.75284  -15.36413
       O     5.23773   -7.56820  -15.28261
      H1     4.75228   -7.41969  -14.44288
       H     7.95340   -6.08272  -15.13524
       O     7.04898   -5.72985  -15.08164
      H1     7.02435   -5.15892  -15.89033
       H     4.95568   -6.46673  -10.59952
       O     4.76771   -5.49940  -10.72253
      H1     4.55904   -5.16725   -9.81703
       H     6.36515   -2.34936  -12.48103
       O     6.35254   -1.54123  -11.96473
      H1     5.64756   -1.69353  -11.32974
       H     3.85503   -3.83705  -13.77883
       O     4.16375   -4.58290  -14.30388
      H1     4.42242   -4.17702  -15.16246
       H     9.50673   -2.35461  -13.09983
       O     8.66030   -2.33322  -13.58733
      H1     8.13503   -3.03242  -13.19251
       H     5.75667   -5.34791  -18.90291
       O     5.79821   -5.51615  -17.93613
      H1     5.21742   -6.27410  -17.80886
       H     3.32294   -3.06239  -16.92548
       O     2.45897   -3.21914  -17.31064
      H1     2.38488   -4.18810  -17.30714
       H     2.99586   -8.69062  -13.15595
       O     3.37249   -7.81798  -12.97479
      H1     2.65414   -7.22830  -13.16813
       H     5.97636   -2.90782  -16.32586
       O     5.07239   -3.17956  -16.50743
      H1     5.24747   -3.96477  -17.03688
       H     2.82273   -2.42135  -12.38430
       O     3.37213   -2.36603  -13.16192
      H1     2.87255   -1.75141  -13.74102
       H     4.06242   -7.62034  -16.64840
       O     3.74863   -7.44699  -17.52447
      H1     3.26268   -8.27462  -17.75944
       H    -0.39498   -3.39158  -12.11520
       O     0.44978   -3.28459  -12.57100
      H1     0.75742   -4.18525  -12.80467
       H     6.29820   -4.67260  -13.71649
       O     6.38133   -4.40689  -12.76199
      H1     5.51079   -4.64865  -12.45254
       H     2.25670   -6.26956  -16.97570
       O     1.65456   -5.74392  -16.38829
      H1     0.81477   -5.84747  -16.85847

