60
frame 1 | Written by MDAnalysis XYZWriter (release 2.4.3)
       H    -7.25773   12.09932   10.20958
       O    -7.75213   12.76291   10.70535
      H1    -8.63673   12.57742   10.45258
       H    -3.83401   17.62427    7.92933
       O    -3.41842   17.40800    8.77592
      H1    -3.92926   17.96376    9.40189
       H    -7.10248   16.43952   17.96959
       O    -6.71149   16.34804   17.09526
      H1    -6.78386   17.24014   16.73877
       H    -3.69272   15.90306    9.79839
       O    -4.04433   15.17393   10.31874
      H1    -4.99563   15.33459   10.39613
       H    -9.87813   17.28954    9.34794
       O    -9.92336   16.36344    9.05991
      H1   -10.14723   15.92733    9.89526
       H    -6.21497   18.79526   14.46107
       O    -5.62634   18.28213   15.00362
      H1    -5.09433   17.78223   14.37600
       H   -12.92171   16.15871    8.17238
       O   -12.23564   16.53800    7.60671
      H1   -11.46626   16.46582    8.19335
       H    -7.46378   13.44577   13.73161
       O    -6.85212   12.77048   13.38652
      H1    -7.05311   12.65650   12.44201
       H    -4.22768   17.18399   12.41191
       O    -3.67533   17.86729   12.80764
      H1    -2.81524   17.86355   12.33164
       H    -8.34087   17.82433    7.68437
       O    -8.09283   17.40307    6.84890
      H1    -8.97858   17.17994    6.46574
       H   -12.72108   18.11990    8.09658
       O   -13.01952   18.72915    8.80645
      H1   -12.40780   18.49668    9.49067
       H    -9.49417   14.82423    7.35087
       O   -10.02510   14.54100    6.56672
      H1   -10.41348   15.34420    6.22085
       H   -11.52712   15.72531   11.67083
       O   -10.58753   15.52384   11.81781
      H1   -10.57669   14.70972   12.36608
       H    -7.79067   18.00179   12.28815
       O    -8.12615   18.20761   11.43765
      H1    -8.19592   17.35042   10.99635
       H    -9.74190   17.72705   14.40735
       O    -9.42120   16.90399   14.03891
      H1    -9.79295   16.91355   13.17000
       H    -8.31335   15.60912    9.80500
       O    -7.41202   15.44675   10.08871
      H1    -7.46077   14.52894   10.39925
       H    -6.51589   16.27035    6.87956
       O    -5.81810   15.77651    6.41097
      H1    -5.05045   15.75078    6.97031
       H    -6.38717   16.07493   13.42856
       O    -5.69848   16.07197   12.74596
      H1    -5.11378   15.34888   13.08597
       H   -11.85276   15.65816   15.68222
       O   -10.88580   15.56078   15.77757
      H1   -10.55169   16.22689   15.17873
       H    -7.53562   15.01713   15.62363
       O    -7.65997   14.91181   14.70045
      H1    -8.47140   15.38833   14.51700

