60
frame 1 | Written by MDAnalysis XYZWriter (release 2.4.3)
       H    -8.05612  -15.85619   11.04381
       O    -8.16542  -16.17965   10.14391
      H1    -7.41452  -16.79540   10.01392
       H    -9.01439  -17.50934   12.84179
       O    -9.77821  -17.25601   12.29139
      H1    -9.36213  -17.02779   11.45048
       H    -4.25098  -15.42628    9.04768
       O    -5.05271  -15.38250    8.52396
      H1    -5.55802  -14.63395    8.93798
       H    -9.05835  -16.46327    5.58875
       O    -9.67109  -15.75078    5.63525
      H1    -9.07220  -15.01861    5.87894
       H    -9.14198  -18.87618   10.02173
       O    -9.41128  -18.90694    9.09724
      H1    -9.80004  -18.01296    8.97248
       H   -11.51280  -18.59030    7.14502
       O   -11.87452  -18.53722    6.23985
      H1   -12.27227  -17.65234    6.21970
       H    -5.49189  -13.74253    6.22777
       O    -5.34127  -14.64448    5.95801
      H1    -5.00126  -15.10140    6.73817
       H    -2.40349  -19.20981    8.61440
       O    -1.72012  -18.54111    8.77976
      H1    -2.03599  -17.78583    8.31933
       H    -7.65126  -17.96594    6.22136
       O    -7.93197  -17.91110    5.29141
      H1    -8.48844  -18.69136    5.14609
       H    -8.57944  -14.97147    8.76812
       O    -8.27096  -14.56210    7.96671
      H1    -9.04845  -14.12613    7.67516
       H   -10.25593  -16.15632    7.64294
       O   -10.77547  -16.73470    8.20625
      H1   -11.25298  -16.11040    8.77557
       H    -4.43918  -17.74785    9.96629
       O    -4.87212  -18.62576    9.95734
      H1    -5.38957  -18.66746   10.75263
       H    -3.64945  -18.05868   12.83578
       O    -3.44735  -17.13124   12.81178
      H1    -3.40026  -16.87427   11.86092
       H    -7.40777  -13.63628    4.25557
       O    -7.83570  -13.77891    5.09118
      H1    -7.23958  -14.35463    5.56169
       H    -5.10724  -14.49615   11.25393
       O    -5.45030  -13.69639   10.85286
      H1    -4.77119  -13.05904   10.96626
       H    -2.18638  -16.92439    9.93517
       O    -2.86619  -16.35573   10.32518
      H1    -2.64861  -15.43574   10.01559
       H    -5.49765  -16.11436    4.75872
       O    -5.58714  -16.99970    4.37537
      H1    -6.51219  -17.19569    4.53741
       H    -4.95456  -18.58800    6.17709
       O    -4.19261  -18.60777    6.75591
      H1    -3.49071  -18.18089    6.25677
       H    -7.34443  -12.24517    9.79887
       O    -7.55381  -12.08214    8.88268
      H1    -7.91453  -12.91520    8.58835
       H    -6.07523  -18.14470    8.35907
       O    -6.74297  -17.52670    8.00897
      H1    -6.29431  -16.67259    8.04347

