60
frame 1 | Written by MDAnalysis XYZWriter (release 2.4.3)
       H    11.80554  -14.52886   -2.09716
       O    11.00721  -14.26188   -2.56362
      H1    11.31200  -13.91770   -3.39381
       H    13.26896  -18.28853    0.86452
       O    13.65461  -17.76313    0.13090
      H1    13.30145  -18.16821   -0.66241
       H    14.83403  -16.67952    0.54805
       O    15.24326  -15.81130    0.69622
      H1    16.08582  -15.83833    0.18369
       H     7.31841  -15.16207   -0.74279
       O     7.24341  -15.96440   -1.24843
      H1     8.08069  -16.09468   -1.71596
       H    10.72355  -13.04440    1.13973
       O    10.95715  -12.28931    0.58997
      H1    10.48348  -11.57255    1.04813
       H    11.39081  -18.55529   -2.97092
       O    11.57935  -18.45326   -3.92040
      H1    10.70655  -18.39768   -4.30765
       H     8.76715  -12.88606    3.01695
       O     9.54835  -13.37276    2.77081
      H1     9.23911  -14.25955    2.63312
       H    11.07982  -17.25412    0.95709
       O    10.24545  -17.50879    0.54162
      H1    10.31536  -17.04298   -0.30524
       H    12.55233  -17.20808   -3.86169
       O    13.22724  -16.53144   -3.65664
      H1    14.01523  -17.05945   -3.56198
       H    13.50398  -15.73777   -1.95287
       O    13.55999  -14.95379   -1.41616
      H1    14.20033  -15.23823   -0.72778
       H    11.16553  -15.80805    5.37751
       O    11.47555  -16.67604    5.02692
      H1    10.84122  -17.34286    5.32690
       H    13.29063  -17.12395    4.57576
       O    13.99008  -17.75500    4.73180
      H1    14.73491  -17.47170    4.17197
       H    10.17927  -15.72721   -2.69478
       O     9.70824  -16.46123   -2.30748
      H1     9.72751  -17.10406   -3.05218
       H     8.94631  -16.17593    1.21269
       O     8.44511  -15.78136    1.92772
      H1     7.65107  -15.47115    1.45525
       H     8.43989  -13.29039    0.18176
       O     8.65082  -13.47588   -0.77920
      H1     9.62684  -13.41908   -0.77190
       H    13.64368  -13.37959    3.35995
       O    12.93410  -13.95982    3.71513
      H1    12.99518  -14.74473    3.17308
       H     9.28523  -18.64069    2.70841
       O     8.74749  -18.28049    3.42449
      H1     8.31588  -17.46724    3.09225
       H    11.81977  -16.48188    3.26134
       O    12.28356  -16.27526    2.42306
      H1    13.07839  -16.86075    2.34626
       H    15.87519  -16.23672    2.62050
       O    16.12795  -16.50039    3.49178
      H1    16.09728  -15.67385    3.99337
       H     9.59622  -18.64512    5.01778
       O    10.30933  -18.82774    5.68608
      H1     9.86080  -19.13231    6.47861

