60
frame 0 | Written by MDAnalysis XYZWriter (release 2.4.3)
       H     3.36212  -14.13041   12.73238
       O     3.14397  -13.20619   12.88283
      H1     3.88507  -12.93307   13.43849
       H     8.49686  -14.94115   11.16760
       O     9.02850  -15.44441   10.55890
      H1     8.44656  -15.95964   10.00314
       H     4.85387  -18.55457   13.56610
       O     4.09167  -18.40529   12.98876
      H1     4.06577  -17.43829   12.99383
       H     7.35191  -15.60242   17.45507
       O     7.29189  -16.56059   17.62624
      H1     7.67889  -16.70025   18.49186
       H    10.16202  -19.02461   12.63917
       O     9.77778  -18.34203   13.22025
      H1    10.46901  -17.63938   13.23229
       H     9.10030  -18.69396    6.90307
       O     8.47597  -18.14015    7.36838
      H1     8.54516  -18.45312    8.27610
       H     7.75502  -14.28508   14.17058
       O     7.34705  -13.43312   14.03134
      H1     7.70732  -13.16522   13.13181
       H    12.59611  -18.55120   11.42768
       O    12.10167  -17.74189   11.41119
      H1    12.73776  -17.02963   11.66426
       H     8.22683  -17.82580   11.02316
       O     8.18963  -18.06146   10.05504
      H1     7.23457  -18.17250    9.88527
       H     5.76505  -13.39469   10.89940
       O     6.35587  -14.12367   11.09900
      H1     6.26105  -14.66849   10.31124
       H     9.17631  -16.35971   13.96625
       O     8.63795  -16.15352   14.74723
      H1     9.16001  -16.54231   15.44168
       H     9.77014  -17.74360   17.36146
       O    10.37100  -17.29569   16.74895
      H1    11.16148  -17.80791   16.80052
       H     6.81062  -17.25311   13.33653
       O     7.15267  -18.16955   13.36471
      H1     8.10788  -18.04881   13.28477
       H     6.04199  -15.07452   12.59038
       O     5.77875  -15.89544   13.04239
      H1     5.34930  -15.59713   13.85249
       H    10.45622  -15.61345   16.78764
       O    10.86728  -14.73171   16.65229
      H1    11.34797  -14.54027   17.46815
       H     5.34124  -16.32776    8.50506
       O     6.13905  -15.96272    8.91568
      H1     6.61924  -15.64227    8.13431
       H    11.14625  -16.09578   12.26871
       O    10.92578  -15.83144   13.16182
      H1    10.77084  -14.87134   13.07024
       H     1.88861  -16.08643   12.62790
       O     2.74072  -16.05405   12.19700
      H1     2.61686  -16.01010   11.24628
       H     3.18811  -15.72761   14.60219
       O     3.99590  -15.84334   15.14258
      H1     3.80711  -16.69143   15.57976
       H     6.28278  -17.51254   16.54069
       O     5.83128  -18.15891   15.97213
      H1     6.12637  -17.97258   15.07316

