60
frame 0 | Written by MDAnalysis XYZWriter (release 2.4.3)
       H   -14.53614   11.12754   11.92341
       O   -14.27409   10.82871   11.07675
      H1   -13.56390   11.45000   10.79978
       H   -11.93943   13.44259   10.44606
       O   -12.54870   12.74214   10.20714
      H1   -12.24002   12.55904    9.30149
       H   -10.39661    6.36597    8.84989
       O    -9.64598    6.52256    8.23227
      H1   -10.06367    6.66709    7.36877
       H   -13.31247   12.54566    7.58387
       O   -12.31891   12.43564    7.61272
      H1   -12.13503   11.58430    7.15979
       H   -12.41968    7.30155    9.28750
       O   -12.00476    6.44320    9.43217
      H1   -11.85028    6.42066   10.35908
       H   -11.70433    7.10945    6.20323
       O   -10.88385    7.09374    5.69766
      H1   -11.26017    7.23223    4.79048
       H   -12.56029    4.61957    6.10527
       O   -13.24151    5.22610    6.28971
      H1   -13.92561    4.92959    5.69286
       H   -11.91935   10.00499   11.64270
       O   -11.18594    9.56705   11.20705
      H1   -10.51247   10.26517   11.17378
       H    -9.55223    9.21565    7.56613
       O    -9.04701    9.05466    8.36168
      H1    -9.01612    8.08516    8.36224
       H   -11.03518    9.42106    5.90655
       O   -10.13604    9.81583    5.99997
      H1    -9.53383    9.16757    5.67591
       H   -12.52777    7.88378    3.24436
       O   -11.66384    7.46184    3.00916
      H1   -11.93099    6.70535    2.49142
       H   -10.14025   10.94119    3.17065
       O    -9.84570   11.54634    3.88363
      H1    -9.66474   10.95780    4.63807
       H   -12.22647    9.10836    9.89265
       O   -13.06573    8.93732    9.46974
      H1   -13.67850    9.47493   10.01163
       H   -11.58754   11.86697    4.34091
       O   -12.55645   11.81226    4.33367
      H1   -12.85628   12.65127    4.69513
       H   -13.17970    9.50187    7.72775
       O   -12.77872    9.82738    6.89218
      H1   -13.50877    9.88899    6.25265
       H   -17.48311   10.46603    6.80726
       O   -16.81676   10.08355    7.41517
      H1   -17.38484    9.57187    8.02773
       H   -15.48961    7.04633    7.97801
       O   -16.04977    6.85502    8.74999
      H1   -15.46082    7.07853    9.47049
       H   -15.76960   11.46221    6.94152
       O   -15.19142   12.22766    6.82414
      H1   -15.26779   12.45616    5.88146
       H   -14.42382    9.21391    3.35824
       O   -13.71202    9.20651    4.00598
      H1   -13.39739   10.14683    3.94865
       H   -15.63377    8.71547    6.67107
       O   -15.20132    7.93462    6.30970
      H1   -14.62245    8.24578    5.61651

