60
frame 1 | Written by MDAnalysis XYZWriter (release 2.4.3)
       H    -5.15102   -4.50407    5.32393
       O    -5.90737   -4.37492    4.75238
      H1    -6.24962   -5.22404    4.47789
       H    -8.54105    0.04084    9.66084
       O    -9.29989   -0.45041    9.35884
      H1   -10.08213    0.03329    9.76712
       H    -4.38213    0.92199    8.80877
       O    -5.19144    0.42335    8.83016
      H1    -4.95771   -0.42065    8.43421
       H    -8.07719   -4.52080    2.31406
       O    -7.42875   -3.82828    2.09120
      H1    -7.31504   -3.38364    2.93840
       H    -8.46954   -3.87347   10.37222
       O    -8.46472   -4.59978   11.03168
      H1    -8.24452   -4.17443   11.86254
       H    -9.80424   -4.81806    4.86607
       O    -9.38937   -5.29968    4.14700
      H1    -8.50794   -5.36802    4.50778
       H    -3.85100   -1.32493    3.37465
       O    -3.91500   -0.55525    3.96339
      H1    -3.86839   -0.97557    4.85321
       H    -7.40333   -1.38848    4.27031
       O    -7.67623   -2.30108    4.39312
      H1    -8.62642   -2.26607    4.39058
       H    -3.42531   -5.09884    6.83028
       O    -3.79821   -4.23038    7.02742
      H1    -4.34576   -4.43183    7.80208
       H    -6.85567   -2.29145    6.08692
       O    -6.74482   -2.18927    7.04172
      H1    -7.59452   -2.35353    7.43418
       H    -6.01003   -4.67924    9.96265
       O    -5.87954   -4.73326    9.02194
      H1    -6.55264   -4.15610    8.67566
       H    -7.00038   -0.67204   11.04951
       O    -7.19639    0.25842   10.96069
      H1    -6.49891    0.57633   10.39189
       H   -10.69297   -4.10528    7.04113
       O   -10.15002   -3.61446    6.42859
      H1   -10.66550   -2.83252    6.15700
       H    -7.93257   -7.66374    7.49182
       O    -7.33660   -7.40362    8.19251
      H1    -7.17995   -6.45882    8.06637
       H    -4.60567    0.99966    4.56027
       O    -5.13428    1.69698    4.99385
      H1    -5.85851    1.26373    5.49194
       H    -8.76918   -4.70278    6.82138
       O    -7.87978   -5.07499    6.80304
      H1    -7.37676   -4.43028    6.29068
       H    -8.67094   -2.14404    9.18421
       O    -8.43684   -3.03263    8.85329
      H1    -9.29505   -3.43063    8.62337
       H    -4.72625   -3.86521    3.65579
       O    -4.04538   -3.48442    3.08126
      H1    -3.29546   -3.41243    3.71825
       H    -3.41108   -2.46767    6.53101
       O    -3.35745   -1.51247    6.36423
      H1    -2.43138   -1.40466    6.30641
       H    -7.00604   -0.15885    6.78414
       O    -7.37588    0.66911    6.50650
      H1    -7.00458    1.31390    7.14893

