60
frame 1 | Written by MDAnalysis XYZWriter (release 2.4.3)
       H     3.95865    2.79830  -13.78272
       O     3.08685    3.06416  -14.01356
      H1     2.97255    3.74941  -13.37903
       H     5.17932    3.55901   -9.95850
       O     4.87691    2.60742   -9.76233
      H1     5.26080    2.40538   -8.92069
       H     6.52008    2.22448  -10.61834
       O     7.44944    2.27576  -10.39488
      H1     7.63900    1.40311  -10.03816
       H     8.86974    4.09517   -9.71428
       O     8.59323    4.93967  -10.07967
      H1     9.05416    5.61883   -9.58518
       H     5.15502    4.87593  -10.95273
       O     5.72549    5.14548  -10.22799
      H1     6.62891    5.04124  -10.53301
       H     4.26847   -0.19710   -9.56807
       O     4.55883   -0.95105   -9.06058
      H1     3.79972   -1.57021   -9.02825
       H     6.65021    3.99494  -13.41343
       O     6.20606    4.67335  -13.92641
      H1     5.92649    4.15303  -14.68995
       H     4.91948   -0.73379  -12.13724
       O     5.72506   -0.34677  -11.71787
      H1     5.67545   -0.57211  -10.78475
       H     2.55527    3.08140   -8.70638
       O     1.87852    2.37545   -8.63324
      H1     2.14045    1.72141   -9.28498
       H     6.36532    4.93615   -7.17686
       O     5.62522    5.42289   -7.55159
      H1     5.72920    5.26655   -8.47174
       H     8.58197   -1.83484  -11.69848
       O     8.37578   -1.10869  -12.29976
      H1     7.42183   -0.99755  -12.19217
       H     3.33728    1.64506  -10.80217
       O     2.91747    0.79609  -10.59509
      H1     2.11285    0.82906  -11.15156
       H     6.09965    1.25726   -6.28420
       O     5.49355    0.98526   -7.00942
      H1     5.45030    0.03273   -6.89769
       H     7.82542    2.48646  -13.28224
       O     8.12023    3.27771  -12.79493
      H1     8.09925    2.96029  -11.85720
       H     3.95479    6.06290  -12.43169
       O     3.99749    5.07975  -12.55783
      H1     4.67247    5.05750  -13.22939
       H     9.36877    0.16119  -11.67082
       O    10.12543    0.68266  -11.35809
      H1    10.83722    0.08130  -11.52970
       H     2.91799    5.56483   -8.75866
       O     3.09581    4.85902   -8.16534
      H1     4.05278    4.92763   -8.02085
       H     7.21014    0.03732   -8.41012
       O     7.37946   -0.34687   -9.26445
      H1     7.20659   -1.28092   -9.10170
       H     5.05244    1.02509  -13.83990
       O     5.73749    1.58645  -13.47264
      H1     6.01684    1.05612  -12.69413
       H    10.03617    0.83317   -9.43031
       O    10.27770    0.67519   -8.52349
      H1    10.85806    1.41428   -8.29309

