60
frame 0 | Written by MDAnalysis XYZWriter (release 2.4.3)
       H    -1.53422    1.23458    7.99917
       O    -1.21551    1.48021    7.11875
      H1    -0.26022    1.41871    7.25996
       H    -4.91602   -3.30978    6.77170
       O    -5.23299   -4.06549    6.25818
      H1    -4.61764   -4.75128    6.50334
       H    -3.18897    0.93095    9.61048
       O    -2.96371    1.81453    9.31285
      H1    -3.06920    2.36439   10.11290
       H     0.25725    1.75925    4.66718
       O     1.10985    2.24904    4.77173
      H1     1.74453    1.64629    5.19441
       H    -1.32440    1.07012    3.24573
       O    -1.46197    1.62107    4.03286
      H1    -1.98647    1.03945    4.60917
       H    -6.39967   -0.64320    9.06122
       O    -6.15511   -0.17128    9.86163
      H1    -6.21786   -0.84929   10.52780
       H    -1.54113    4.40021    4.84241
       O    -2.47418    4.66241    4.89251
      H1    -2.40252    5.60084    4.67361
       H    -4.17370   -0.35603    5.06465
       O    -3.36940   -0.01659    5.46534
      H1    -3.70458    0.72673    5.98356
       H    -5.33533    1.64317    2.60103
       O    -5.69905    1.12982    1.88558
      H1    -5.87083    1.78889    1.21399
       H    -3.89735    2.23354    7.62833
       O    -4.44974    2.09100    6.86695
      H1    -5.28944    1.85690    7.30487
       H    -5.77652    2.62708    4.25091
       O    -5.47416    3.46958    3.93224
      H1    -4.69584    3.59606    4.49218
       H    -6.87889   -1.37448    6.09898
       O    -7.37303   -1.19646    6.93894
      H1    -7.90243   -2.01079    7.06156
       H    -2.02340    4.75882    6.59185
       O    -2.14609    4.30747    7.44641
      H1    -1.74239    3.44501    7.29498
       H    -4.57618   -0.40259   10.25951
       O    -3.69684   -0.78047   10.05963
      H1    -3.43486   -1.18550   10.89544
       H    -2.20387    2.72805    2.81861
       O    -2.86461    3.21617    2.28377
      H1    -3.01863    3.97837    2.88769
       H    -5.82497    5.00001    7.30606
       O    -4.99458    4.96160    7.78582
      H1    -4.45010    4.34845    7.25750
       H    -1.07996   -0.71319    6.18555
       O    -0.47951   -1.46008    6.16695
      H1    -0.47260   -1.76518    7.06858
       H    -7.52132    1.46237    4.44263
       O    -6.76055    1.20933    4.96376
      H1    -7.10351    1.27031    5.87031
       H    -3.49005   -1.09058    6.95139
       O    -3.98441   -1.71793    7.53092
      H1    -3.72392   -1.48054    8.42705
       H    -7.99178    0.70008    7.62207
       O    -7.69349    1.58253    7.40254
      H1    -8.34539    2.20012    7.83382

