60
frame 1 | Written by MDAnalysis XYZWriter (release 2.4.3)
       H   -13.94267   -6.69585    8.97763
       O   -13.96046   -5.76481    8.93038
      H1   -13.89315   -5.55382    8.00219
       H   -15.49204   -2.53281    5.53392
       O   -15.68756   -1.99624    4.78141
      H1   -15.14653   -1.19496    4.88665
       H   -12.56985   -5.15055    2.71952
       O   -13.09032   -4.97958    3.54128
      H1   -14.02391   -5.03485    3.27145
       H   -16.81244   -1.42543    7.86969
       O   -16.42672   -1.85209    8.65241
      H1   -17.18401   -2.38775    8.93799
       H   -14.70339   -2.17255    8.46064
       O   -13.73430   -2.23629    8.46774
      H1   -13.58449   -1.84953    7.59777
       H   -10.93758   -6.91637    8.05214
       O   -10.46639   -6.69997    7.23640
      H1   -11.10300   -6.92918    6.54579
       H   -14.11310   -8.63924    6.75658
       O   -13.97031   -9.53748    7.09693
      H1   -14.82006   -9.94604    7.04126
       H   -12.38206   -6.27128    4.53015
       O   -12.32099   -7.08190    5.04160
      H1   -11.73785   -7.66479    4.56144
       H   -15.58238   -7.79175    5.55264
       O   -15.08684   -7.00417    5.81574
      H1   -14.63043   -6.78029    4.99176
       H   -13.68814   -7.70540    3.98008
       O   -14.39355   -7.87512    3.34372
      H1   -14.40852   -8.84815    3.30361
       H   -11.57049   -7.18669   10.27479
       O   -11.03171   -6.53966    9.78786
      H1   -10.18868   -6.85979   10.08233
       H   -10.69297   -4.10528    7.04113
       O   -10.15002   -3.61446    6.42859
      H1   -10.66550   -2.83252    6.15700
       H   -13.88225   -8.93538    9.03131
       O   -14.17895   -8.33872    9.74390
      H1   -13.57095   -8.47866   10.47603
       H   -15.14612   -3.27855   12.73352
       O   -14.95381   -4.12464   13.07043
      H1   -15.17490   -4.71642   12.34391
       H   -15.38635   -5.85854   10.40750
       O   -16.03946   -5.25128   10.80849
      H1   -16.33909   -5.74127   11.56210
       H   -15.37630   -9.52472   10.15204
       O   -16.15948   -9.94277   10.56046
      H1   -16.62129  -10.34865    9.78894
       H   -11.72294   -4.72212    9.84247
       O   -11.75600   -3.77627    9.71343
      H1   -12.68650   -3.55340    9.65791
       H   -17.28144   -5.12066    9.69749
       O   -17.97514   -5.39744    9.09446
      H1   -18.13138   -4.61958    8.54077
       H   -16.74355   -5.64564    3.29095
       O   -16.05073   -4.99555    3.53900
      H1   -16.07410   -4.98059    4.51313
       H   -15.66028   -5.31776    6.63066
       O   -15.70407   -4.40281    6.41738
      H1   -16.00381   -4.01731    7.23558

