60
frame 0 | Written by MDAnalysis XYZWriter (release 2.4.3)
       H    -3.63089   -9.45609   -4.56614
       O    -4.56936   -9.29282   -4.62896
      H1    -4.70145   -8.84608   -5.46533
       H     1.56763   -6.53046   -8.55548
       O     1.39364   -6.14423   -7.68402
      H1     0.46936   -5.84216   -7.76402
       H    -1.99780   -8.54555   -8.41021
       O    -2.36700   -8.08429   -9.16856
      H1    -1.70258   -8.24718   -9.84419
       H    -7.05164   -4.73114   -9.70211
       O    -6.44536   -4.46091  -10.40559
      H1    -6.09447   -3.64383   -9.99931
       H    -5.22890   -5.59885  -10.67817
       O    -4.60798   -6.30079  -10.50618
      H1    -3.97347   -6.20969  -11.23951
       H    -2.29627   -6.42390   -7.36964
       O    -1.45226   -6.53246   -6.92201
      H1    -1.47680   -5.89118   -6.18840
       H    -5.91939   -6.44379   -3.94802
       O    -6.69187   -6.03734   -4.45192
      H1    -6.55723   -6.34545   -5.36983
       H    -4.11886   -7.52605   -4.16055
       O    -4.22294   -6.82153   -3.50077
      H1    -3.56145   -6.20351   -3.79360
       H    -3.78882   -3.07837   -7.11325
       O    -4.54272   -3.67157   -6.92534
      H1    -5.31648   -3.26857   -7.34709
       H    -3.89777   -6.29357   -8.91084
       O    -3.84047   -6.13626   -7.95394
      H1    -4.15882   -5.22118   -7.84970
       H    -2.03539   -6.99772  -11.82221
       O    -2.23874   -6.14561  -12.24268
      H1    -1.91101   -5.51290  -11.59964
       H    -5.22521   -6.82245   -7.16006
       O    -5.77127   -7.33073   -6.53370
      H1    -6.29091   -7.94702   -7.04489
       H    -0.51047   -3.84470   -7.94914
       O    -0.72830   -4.45556   -8.67177
      H1    -1.21363   -5.12649   -8.18688
       H    -5.96594   -7.56340  -11.20257
       O    -6.83596   -7.88677  -11.42298
      H1    -6.72639   -8.51646  -12.15639
       H    -1.51206   -6.49475   -3.97102
       O    -1.66282   -5.63763   -4.37051
      H1    -1.11534   -5.06864   -3.83236
       H    -4.69114   -2.68671  -10.68927
       O    -4.24980   -2.67221   -9.82213
      H1    -4.32112   -1.71203   -9.61977
       H    -1.35082   -3.89302  -10.22494
       O    -1.85080   -3.81614  -11.03395
      H1    -2.69807   -3.44492  -10.76273
       H    -0.96471   -8.13321   -7.37967
       O    -0.62445   -9.02191   -7.47141
      H1    -0.77736   -9.45953   -6.59435
       H    -1.69722   -1.96555   -6.45039
       O    -2.21646   -2.26709   -7.19953
      H1    -1.59184   -2.26751   -7.91980
       H    -3.56365  -10.34777  -10.19060
       O    -3.84305  -10.26636   -9.25155
      H1    -3.54743   -9.35018   -9.09708

