60
frame 1 | Written by MDAnalysis XYZWriter (release 2.4.3)
       H   -10.44899   -5.34197    1.07515
       O   -10.94818   -5.03765    1.81514
      H1   -10.31999   -5.24325    2.53992
       H    -5.15102   -4.50407    5.32393
       O    -5.90737   -4.37492    4.75238
      H1    -6.24962   -5.22404    4.47789
       H    -6.24873   -7.25984    3.80702
       O    -7.10620   -6.95720    4.16294
      H1    -7.76312   -7.41099    3.64251
       H   -12.56985   -5.15055    2.71952
       O   -13.09032   -4.97958    3.54128
      H1   -14.02391   -5.03485    3.27145
       H   -11.46050   -1.65671    3.71244
       O   -11.03344   -1.65242    4.57916
      H1   -10.68947   -0.73443    4.62947
       H    -8.00937   -7.77586    5.56523
       O    -8.66900   -8.28469    6.07628
      H1    -9.19706   -7.57867    6.48634
       H    -8.07719   -4.52080    2.31406
       O    -7.42875   -3.82828    2.09120
      H1    -7.31504   -3.38364    2.93840
       H    -9.80424   -4.81806    4.86607
       O    -9.38937   -5.29968    4.14700
      H1    -8.50794   -5.36802    4.50778
       H    -7.40333   -1.38848    4.27031
       O    -7.67623   -2.30108    4.39312
      H1    -8.62642   -2.26607    4.39058
       H   -10.93758   -6.91637    8.05214
       O   -10.46639   -6.69997    7.23640
      H1   -11.10300   -6.92918    6.54579
       H   -12.38206   -6.27128    4.53015
       O   -12.32099   -7.08190    5.04160
      H1   -11.73785   -7.66479    4.56144
       H    -8.86907   -7.03441   -0.25864
       O    -9.40077   -6.22147   -0.19242
      H1   -10.22093   -6.51710   -0.62778
       H    -6.85567   -2.29145    6.08692
       O    -6.74482   -2.18927    7.04172
      H1    -7.59452   -2.35353    7.43418
       H   -10.69297   -4.10528    7.04113
       O   -10.15002   -3.61446    6.42859
      H1   -10.66550   -2.83252    6.15700
       H    -7.93257   -7.66374    7.49182
       O    -7.33660   -7.40362    8.19251
      H1    -7.17995   -6.45882    8.06637
       H   -12.66555   -2.38191    1.93818
       O   -11.68941   -2.28630    1.96315
      H1   -11.35779   -3.19893    2.02622
       H   -11.55442  -10.07192    4.61293
       O   -11.17091   -9.27692    4.20842
      H1   -10.24140   -9.48518    4.27842
       H    -8.36921   -8.51299    1.86358
       O    -8.83442   -8.65324    2.70759
      H1    -9.76639   -8.91441    2.47502
       H    -9.20657   -1.54462    0.48570
       O    -8.80762   -1.53133    1.33081
      H1    -8.39967   -2.38300    1.40021
       H    -8.76918   -4.70278    6.82138
       O    -7.87978   -5.07499    6.80304
      H1    -7.37676   -4.43028    6.29068

