60
frame 1 | Written by MDAnalysis XYZWriter (release 2.4.3)
       H    -1.17102    0.63974    9.32875
       O    -1.27377    1.22151    8.53348
      H1    -2.14282    1.62765    8.66261
       H    -4.38213    0.92199    8.80877
       O    -5.19144    0.42335    8.83016
      H1    -4.95771   -0.42065    8.43421
       H     0.08042    5.67465    9.01002
       O    -0.00754    4.76103    8.68556
      H1    -0.81479    4.74454    8.14724
       H    -8.40733    3.25543    9.82044
       O    -8.16361    3.52737    8.91842
      H1    -8.79237    3.14681    8.32388
       H    -5.80745    4.57200   10.55099
       O    -5.90116    4.28394   11.49475
      H1    -5.39223    4.92637   11.95823
       H    -0.91156    7.65712    5.92674
       O    -1.54161    7.91386    6.61946
      H1    -1.90390    7.03715    6.83541
       H    -7.05442    7.75097   10.40085
       O    -6.15651    8.03557   10.18333
      H1    -5.63742    7.47415   10.76955
       H    -3.57623    2.23354   12.45503
       O    -3.63347    2.51096   11.51305
      H1    -4.41615    3.08505   11.51718
       H    -3.97513    3.07899    7.82766
       O    -3.69391    2.28126    7.37612
      H1    -4.34315    2.21748    6.64446
       H    -1.64735    8.04915    9.77632
       O    -2.64495    8.04548    9.76074
      H1    -2.92396    8.51741   10.56104
       H    -2.77930    4.73619    5.13030
       O    -3.41929    5.20688    4.60911
      H1    -3.09984    6.10947    4.62290
       H    -7.52577    6.86699    7.22118
       O    -6.58470    6.73572    7.25251
      H1    -6.32615    6.85444    8.19023
       H    -1.00718    2.91009    5.73100
       O    -1.63574    3.55295    6.01151
      H1    -2.24925    2.97251    6.47464
       H    -3.63152    6.96235    7.31368
       O    -3.24525    6.24663    7.85616
      H1    -3.12676    6.68559    8.71794
       H    -3.83110    6.41057   12.24950
       O    -4.74320    6.76812   12.18138
      H1    -5.01039    6.99489   13.08168
       H    -4.79410    4.87840    8.39165
       O    -5.23702    4.11947    8.76514
      H1    -6.08354    4.15264    8.33933
       H    -1.66279    5.42428   11.26770
       O    -2.32380    5.37055   11.98801
      H1    -2.52452    4.39161   12.05648
       H    -4.32547    8.25109    5.31516
       O    -4.11443    8.34251    6.26878
      H1    -3.16976    8.53100    6.29076
       H    -6.46349    5.31543    6.28899
       O    -6.18951    4.63928    5.63549
      H1    -5.49424    5.06385    5.11172
       H    -7.00604   -0.15885    6.78414
       O    -7.37588    0.66911    6.50650
      H1    -7.00458    1.31390    7.14893

