60
frame 1 | Written by MDAnalysis XYZWriter (release 2.4.3)
       H    17.39655  -14.56231   -8.17268
       O    17.36902  -13.91395   -7.45787
      H1    16.67454  -13.30460   -7.72519
       H    13.85645  -11.11977   -6.47052
       O    13.74502  -10.37467   -7.10502
      H1    13.19779  -10.66600   -7.81341
       H    17.72048  -12.09129  -10.30655
       O    18.04852  -11.28268   -9.84592
      H1    17.47795  -11.17628   -9.06648
       H    17.01551   -4.59381   -3.26591
       O    17.73486   -4.91259   -2.67326
      H1    18.51275   -4.85498   -3.25200
       H    15.38443  -10.24382   -7.53827
       O    16.19821  -10.10969   -8.02102
      H1    16.84936   -9.79844   -7.36158
       H    19.00551   -8.88876   -7.05986
       O    18.38242   -9.49783   -6.67551
      H1    17.95854   -8.94612   -6.02668
       H    14.91341   -5.82600   -6.46215
       O    15.04474   -5.76685   -7.40505
      H1    15.12620   -4.81095   -7.53991
       H    13.62624  -12.36076   -4.45607
       O    14.34830  -12.16137   -5.09612
      H1    15.17698  -12.24968   -4.62291
       H    17.22668   -6.55010   -9.62123
       O    17.86181   -5.88348   -9.38282
      H1    17.87680   -5.90170   -8.41934
       H    18.11042  -11.32431   -4.83988
       O    17.37067  -11.18876   -4.25136
      H1    17.51661  -10.34052   -3.86771
       H    16.93088   -7.34068   -4.36043
       O    16.59994   -7.64191   -5.23148
      H1    15.77611   -8.06388   -5.05862
       H    16.66838   -6.12587   -1.76128
       O    16.00667   -6.78822   -2.00737
      H1    16.52773   -7.57416   -2.11238
       H    15.61810   -7.03741   -8.95523
       O    15.69698   -7.74301   -9.62744
      H1    15.97323   -8.57566   -9.16342
       H    18.89868   -8.94124   -2.89949
       O    17.92472   -9.00410   -2.86175
      H1    17.77861   -9.37773   -1.98347
       H    14.29872  -10.18854   -2.78629
       O    13.36960   -9.93401   -2.92122
      H1    13.01206  -10.53381   -3.58168
       H    17.82098  -12.95475   -3.69143
       O    17.99769  -13.63626   -3.02056
      H1    18.11779  -13.12196   -2.21884
       H    18.83148  -10.65325  -12.68403
       O    18.35577   -9.90807  -12.30913
      H1    18.33719  -10.03159  -11.35993
       H    17.55685   -4.40802   -6.84499
       O    17.94164   -5.21645   -6.54142
      H1    17.19490   -5.84605   -6.47474
       H    14.83048   -6.35780   -3.26893
       O    14.40324   -5.82026   -3.92838
      H1    13.96023   -6.50975   -4.45259
       H    13.65972   -8.88696   -4.28788
       O    13.86619   -8.32045   -5.06383
      H1    13.74036   -8.94299   -5.78245

