60
frame 1 | Written by MDAnalysis XYZWriter (release 2.4.3)
       H     9.69689   -3.33704    6.04545
       O     9.64469   -4.06918    5.42067
      H1    10.20775   -3.74470    4.67901
       H    13.77587   -6.96807    8.03988
       O    13.64520   -6.71704    8.95754
      H1    12.97860   -7.37902    9.24207
       H    12.68641   -8.06006    5.90099
       O    13.44153   -8.52671    6.22831
      H1    13.23970   -9.48115    6.15111
       H    10.96520   -5.12341    9.58814
       O    10.61425   -5.17901   10.52103
      H1    11.01203   -5.99409   10.85383
       H    12.55567   -8.51428    2.13441
       O    12.93537   -8.42174    1.26421
      H1    12.18684   -8.37311    0.69518
       H    11.40432   -6.38291    5.79375
       O    11.09941   -7.30357    5.77345
      H1    10.94311   -7.53885    6.70743
       H     7.71823   -9.71219    7.97326
       O     8.58485   -9.37155    7.67093
      H1     8.77698   -8.74430    8.39070
       H    11.05076   -8.51712    4.22366
       O    11.49496   -9.04979    3.56384
      H1    10.77944   -9.32357    2.97494
       H    12.22674   -6.38123    1.80975
       O    12.52464   -5.76202    2.46620
      H1    12.01918   -4.95537    2.30170
       H    12.73363   -5.78277    4.41915
       O    12.77434   -5.16585    5.14441
      H1    13.69134   -4.91239    5.31079
       H    11.96035   -4.13614    8.33984
       O    11.61606   -5.02843    8.08118
      H1    12.36333   -5.63959    8.22705
       H     8.51953  -10.19781    4.88019
       O     8.80719   -9.29613    4.91610
      H1     8.64849   -9.11667    5.85164
       H     9.30991   -7.05702    4.69144
       O     8.97609   -6.39840    4.10268
      H1     9.25445   -5.58778    4.52915
       H    15.84472   -8.16441    3.76539
       O    15.64614   -7.40192    4.36128
      H1    14.90149   -7.72103    4.89717
       H     9.40306  -11.69791    6.95226
       O     9.49984  -11.85916    6.00685
      H1    10.36034  -11.39934    5.84606
       H     7.30576   -7.39234    3.96964
       O     6.37494   -7.52934    3.71676
      H1     6.42121   -8.29540    3.10492
       H    12.03191   -3.43046    4.59843
       O    11.51327   -2.68331    4.28786
      H1    11.42030   -2.17668    5.10534
       H    12.10312  -11.96395    4.38243
       O    11.86557  -11.28023    5.02685
      H1    11.55541  -10.52398    4.52349
       H    11.25499   -8.89044    9.29353
       O    11.43003   -8.45543    8.44105
      H1    12.01842   -9.02927    7.93641
       H     8.67424   -6.20496    7.92030
       O     8.60039   -5.88296    8.83162
      H1     9.47344   -5.93837    9.22701

