60
frame 2 | Written by MDAnalysis XYZWriter (release 2.4.3)
       H    -4.86443   13.38831  -11.06236
       O    -5.44261   13.27378  -11.81515
      H1    -5.29638   12.37209  -12.12922
       H     1.02245   13.45609   -7.13828
       O     1.84795   13.04758   -6.94913
      H1     2.48035   13.77314   -6.67255
       H     2.16368   14.34023  -10.72571
       O     2.51421   14.76928   -9.93805
      H1     1.77068   15.02089   -9.40555
       H     3.34828   12.51558  -11.35132
       O     3.71293   11.97182  -10.60962
      H1     2.90596   11.96836  -10.07329
       H     0.48627   15.24777  -13.01816
       O    -0.33957   15.61906  -13.23071
      H1    -0.23018   15.69941  -14.18221
       H    -1.17351   12.24147  -13.81531
       O    -0.83457   12.78606  -13.10777
      H1    -1.32274   13.63566  -13.22984
       H     0.39436   10.67190  -15.73715
       O    -0.42766   10.39531  -15.24640
      H1    -1.12604   10.37734  -15.88562
       H    -3.88977    9.68264   -9.31456
       O    -4.23160   10.40566   -8.83472
      H1    -3.52184   11.09435   -8.68404
       H    -1.08225   12.70257   -6.16449
       O    -1.10301   13.18181   -7.00083
      H1    -1.91242   12.89822   -7.51086
       H     0.11011   11.75103  -10.27367
       O    -0.75503   11.86155  -10.66194
      H1    -0.52991   12.31013  -11.49470
       H     1.62272   10.72514   -9.13640
       O     1.55362   11.65744   -9.22068
      H1     1.61570   12.09310   -8.35655
       H    -2.36853    7.39003  -10.34336
       O    -3.03446    8.13460  -10.35111
      H1    -2.53209    8.85104  -10.72104
       H    -3.20310   15.70467  -16.10662
       O    -2.41564   15.53369  -15.60096
      H1    -2.69984   15.42350  -14.67045
       H     2.39884   13.31863  -12.97349
       O     1.68161   13.62650  -12.36897
      H1     0.82441   13.37572  -12.68251
       H    -2.00789   16.00205  -12.75565
       O    -2.95211   15.94488  -13.00933
      H1    -3.55568   15.92860  -12.24383
       H    -0.98903    9.86340  -13.43877
       O    -1.46218    9.69015  -12.53073
      H1    -1.25567   10.49417  -12.08634
       H     2.43811    9.83387  -11.68415
       O     2.44769    9.37359  -12.54000
      H1     1.81073    8.69810  -12.44490
       H     1.41026    8.61731   -8.46127
       O     1.48034    8.99009   -9.33305
      H1     2.37948    8.71166   -9.53370
       H    -2.02770   12.87327   -9.41113
       O    -2.80514   12.67674   -8.89803
      H1    -3.27773   13.49081   -8.80445
       H    -1.18138   16.48472   -9.81504
       O    -2.09420   16.63852   -9.91251
      H1    -2.24567   17.57177   -9.64003

