60
frame 1 | Written by MDAnalysis XYZWriter (release 2.4.3)
       H     3.83459   -2.13485    1.79387
       O     4.13921   -2.77293    2.45955
      H1     3.88794   -2.36215    3.28936
       H     6.48815   -5.84635    0.90394
       O     5.53651   -5.94283    0.84899
      H1     5.25559   -5.31751    0.20050
       H     4.01090   -2.50557   -0.48218
       O     3.50456   -1.85026   -0.03090
      H1     3.99779   -1.04836   -0.12432
       H     5.60521   -7.08749   -2.43201
       O     4.72852   -7.40093   -2.23315
      H1     4.77344   -7.62939   -1.28432
       H     4.39149   -1.77467   -4.14149
       O     3.61754   -1.21465   -4.05236
      H1     3.22781   -1.12060   -4.91634
       H     4.61288   -4.32401   -2.09251
       O     5.04548   -4.20718   -1.22411
      H1     5.94484   -3.85608   -1.46307
       H     5.88701   -0.15117   -1.75978
       O     6.35006   -0.28429   -2.56857
      H1     7.23128   -0.22448   -2.30259
       H     1.31087   -5.23247   -1.73170
       O     1.60012   -6.12157   -1.84919
      H1     1.68712   -6.45397   -0.93300
       H     7.33853   -8.32065   -3.12853
       O     7.43937   -7.53084   -2.57743
      H1     8.31595   -7.18419   -2.84346
       H     0.41507   -3.27280    0.80374
       O     1.09115   -3.96772    0.73488
      H1     1.87050   -3.61270    1.16316
       H     6.63027   -2.60591   -4.66853
       O     6.03959   -2.51271   -3.90570
      H1     6.35137   -1.74652   -3.38217
       H     7.18902   -5.04485   -4.64851
       O     6.60372   -5.76482   -4.75394
      H1     7.09079   -6.45277   -4.27202
       H     8.37449   -4.73236   -1.22997
       O     8.99215   -5.46258   -1.34269
      H1     8.80180   -5.94670   -0.54598
       H     3.94259   -5.88294   -3.28513
       O     4.06908   -5.07659   -3.77856
      H1     4.99666   -4.98599   -3.97969
       H     4.75229   -7.47828    0.71177
       O     4.25678   -8.24854    0.38314
      H1     3.29912   -7.98881    0.45567
       H     1.12383   -2.61753   -2.25098
       O     0.90571   -3.53944   -2.11681
      H1     1.04432   -3.61709   -1.18424
       H     1.48717   -3.47262   -5.63197
       O     1.90689   -4.32844   -5.59072
      H1     2.67561   -4.15439   -5.06916
       H     8.89506   -4.71647   -3.13617
       O     8.75515   -4.21221   -3.95898
      H1     8.63318   -3.31699   -3.63288
       H     6.95879   -2.83347   -2.44280
       O     7.40860   -2.99019   -1.60119
      H1     7.44655   -2.11624   -1.22715
       H     2.45674   -1.15688   -2.69677
       O     1.79205   -0.84845   -2.05084
      H1     2.21566   -0.96917   -1.19718

