60
frame 1 | Written by MDAnalysis XYZWriter (release 2.4.3)
       H     3.93098  -14.28771   13.28635
       O     3.69485  -13.35795   13.31260
      H1     3.54830  -13.18207   14.24230
       H     4.52918  -18.43112   18.36144
       O     3.58649  -18.48933   18.46229
      H1     3.49247  -18.11842   19.36101
       H     3.81956  -14.50808   18.59557
       O     4.66936  -14.96523   18.54387
      H1     5.28899  -14.29296   18.81090
       H     0.61507  -10.78881   16.06401
       O     1.15173  -10.46889   16.84606
      H1     1.54588   -9.64834   16.53219
       H     7.41894  -14.80228   14.65540
       O     7.07282  -13.97301   14.90612
      H1     6.81149  -13.57354   14.04773
       H     1.05273  -17.25164   19.58083
       O     0.80784  -16.52440   19.02609
      H1     1.44139  -16.68574   18.27239
       H     4.07860   -7.93597   16.82249
       O     3.89643   -8.86109   17.04521
      H1     4.45971   -8.98724   17.80905
       H     8.26931  -16.44062   13.04326
       O     8.10715  -16.41350   13.99690
      H1     8.86914  -16.82979   14.38813
       H     1.30916  -13.95120   16.20420
       O     2.14856  -13.56410   15.96354
      H1     2.39128  -12.96599   16.67360
       H     9.82033  -17.44467   16.77451
       O    10.12280  -17.92416   15.97331
      H1    11.07817  -17.81492   15.94680
       H     6.85909  -11.99972   16.55271
       O     6.79647  -11.11742   16.94732
      H1     6.73829  -10.51378   16.21132
       H     8.98778  -14.45238   17.59169
       O     9.59177  -13.69708   17.65430
      H1    10.29971  -13.97164   18.23369
       H     4.65622   -9.88991   13.98274
       O     5.23341   -9.41490   14.57194
      H1     4.87288   -9.55326   15.45987
       H     2.76019  -16.49845   15.68086
       O     2.35823  -16.68389   16.52712
      H1     2.79202  -17.47818   16.84390
       H     8.59369  -12.65688   14.58632
       O     9.39752  -12.22045   14.85421
      H1     9.65928  -12.69803   15.67037
       H     0.19592  -11.80195   18.04699
       O    -0.13646  -12.69713   18.09619
      H1    -0.89540  -12.63200   18.63639
       H     8.65564  -16.66379   18.71653
       O     8.57125  -16.53061   17.76308
      H1     7.70989  -16.94716   17.56744
       H     2.45309  -15.96330   13.49446
       O     3.19030  -16.30821   14.04307
      H1     3.50780  -17.11812   13.58128
       H     4.41787  -11.68841   17.17469
       O     3.97774  -12.25509   17.82208
      H1     4.49398  -13.06393   17.75388
       H     5.28738  -16.27824   17.49409
       O     5.81091  -16.99404   17.13116
      H1     5.48851  -17.10447   16.25444

