60
frame 1 | Written by MDAnalysis XYZWriter (release 2.4.3)
       H     7.48263    7.96967  -14.49491
       O     7.87717    7.51531  -15.25864
      H1     8.71046    7.13811  -14.90601
       H    11.94467   12.36569  -17.73705
       O    12.02368   13.19163  -18.21099
      H1    11.76518   12.93344  -19.08596
       H    11.08121   10.39096  -16.48512
       O    11.42651   10.63061  -17.34225
      H1    12.33671   10.34776  -17.27894
       H    10.82254   10.88526  -14.17094
       O    10.64545    9.96668  -14.38986
      H1     9.75579   10.08338  -14.78040
       H    13.36655   11.13230  -14.37382
       O    12.86902   11.59089  -13.69803
      H1    13.56521   11.72687  -13.03020
       H    10.47442   11.17173  -10.43716
       O     9.85443   11.77270   -9.93274
      H1     9.11435   11.17179   -9.79701
       H    15.03911   10.80168  -16.11575
       O    14.28688   10.32172  -15.72806
      H1    14.09879    9.65447  -16.39971
       H     8.91506   10.52192  -18.58183
       O     8.79054   11.46108  -18.83559
      H1     9.65326   11.78761  -18.55328
       H    10.49029    7.02945  -13.70118
       O    10.50844    7.19061  -14.66667
      H1    10.53630    8.14052  -14.71430
       H     7.45761   10.27401  -15.20376
       O     8.22885   10.74802  -15.59014
      H1     7.78883   11.34087  -16.20657
       H     9.42345   13.30538  -12.40457
       O     8.70268   13.44604  -11.76785
      H1     8.97426   12.83639  -11.06179
       H    12.26786    7.25315  -14.59477
       O    13.10307    6.83540  -14.53888
      H1    13.68610    7.50178  -14.11905
       H    10.70620   13.74983  -14.57612
       O    11.11041   13.72601  -13.71372
      H1    11.89936   13.18952  -13.86904
       H     9.00092    7.82128  -10.36892
       O     8.23747    7.83270  -10.94000
      H1     8.53206    7.20400  -11.60899
       H     6.68633   11.38235  -10.84844
       O     6.69878   11.66554  -11.77727
      H1     7.52256   12.15506  -11.83703
       H    14.51626    9.95022  -12.05140
       O    14.86139    9.05655  -12.12338
      H1    14.23326    8.48288  -11.62144
       H    11.61646   10.07435  -12.03978
       O    11.40640    9.89153  -11.11988
      H1    11.99836    9.16648  -10.95088
       H     7.61636    8.99800  -12.24194
       O     7.06434    9.35736  -12.96463
      H1     6.85399   10.24879  -12.63387
       H     8.72509    6.62751  -16.60873
       O     9.41523    6.24223  -17.19431
      H1    10.13116    6.10062  -16.57321
       H    13.56538    8.25337  -18.30578
       O    13.10800    8.28471  -17.46136
      H1    13.29871    7.44573  -17.07723

