60
frame 1 | Written by MDAnalysis XYZWriter (release 2.4.3)
       H    -3.15647    4.98012  -10.60887
       O    -2.39067    5.39760  -11.03538
      H1    -1.94814    4.66040  -11.46643
       H     2.12483    6.81791   -5.83424
       O     1.77885    6.76665   -6.73172
      H1     2.28164    6.05353   -7.16884
       H     0.27456    4.15296   -6.08963
       O    -0.30053    4.93769   -6.05163
      H1     0.25471    5.58353   -6.48980
       H     3.95865    2.79830  -13.78272
       O     3.08685    3.06416  -14.01356
      H1     2.97255    3.74941  -13.37903
       H    -1.17541    6.79061  -14.11224
       O    -0.44430    6.15952  -14.12563
      H1    -0.28084    6.02137  -15.07621
       H     5.17932    3.55901   -9.95850
       O     4.87691    2.60742   -9.76233
      H1     5.26080    2.40538   -8.92069
       H     5.15502    4.87593  -10.95273
       O     5.72549    5.14548  -10.22799
      H1     6.62891    5.04124  -10.53301
       H    -0.58779    8.66479  -10.61613
       O    -0.97838    8.99772   -9.76935
      H1    -0.90997    8.15878   -9.24978
       H     2.55527    3.08140   -8.70638
       O     1.87852    2.37545   -8.63324
      H1     2.14045    1.72141   -9.28498
       H     3.33728    1.64506  -10.80217
       O     2.91747    0.79609  -10.59509
      H1     2.11285    0.82906  -11.15156
       H    -1.70853    1.55465   -9.87767
       O    -1.16795    1.76181   -9.08870
      H1    -0.53426    2.38800   -9.46225
       H     1.49654    5.53446  -10.48214
       O     1.73681    6.41933  -10.20858
      H1     1.35406    7.01305  -10.85391
       H    -1.23437    6.06634   -9.66357
       O    -0.79749    6.40443   -8.87205
      H1     0.13853    6.43395   -9.01388
       H     4.03016    7.94531  -13.24533
       O     4.04102    8.06387  -12.28117
      H1     4.87450    8.52070  -12.16801
       H    -0.24245    4.42426  -12.85294
       O    -0.75989    3.72217  -12.46619
      H1    -0.28951    3.55310  -11.62294
       H     3.95479    6.06290  -12.43169
       O     3.99749    5.07975  -12.55783
      H1     4.67247    5.05750  -13.22939
       H     0.95833    3.54243   -9.21115
       O     0.26763    3.86843   -9.79611
      H1    -0.23899    4.45712   -9.21877
       H     2.91799    5.56483   -8.75866
       O     3.09581    4.85902   -8.16534
      H1     4.05278    4.92763   -8.02085
       H     0.08625    7.51868  -12.57807
       O     0.51800    8.07622  -11.87685
      H1     0.97782    8.77655  -12.37673
       H     3.55063    8.15894   -9.85917
       O     3.76067    8.78700   -9.16120
      H1     2.89218    8.85152   -8.74807

