60
frame 1 | Written by MDAnalysis XYZWriter (release 2.4.3)
       H    -3.26042   12.08467  -11.35099
       O    -3.13716   13.01569  -11.49478
      H1    -4.00603   13.36352  -11.78266
       H    -0.46598   11.87643  -11.78087
       O    -0.33481   11.99291  -12.70692
      H1    -0.34836   12.96277  -12.93297
       H    -0.58779    8.66479  -10.61613
       O    -0.97838    8.99772   -9.76935
      H1    -0.90997    8.15878   -9.24978
       H     0.31651    9.47794   -8.65095
       O     1.15081    9.35845   -8.17484
      H1     0.96760    8.68653   -7.50055
       H    -3.08115   10.47760   -8.90996
       O    -3.06189   11.28095   -8.36399
      H1    -2.14160   11.46095   -8.24122
       H     0.41629   11.81665   -9.93518
       O    -0.52115   11.67478   -9.94705
      H1    -0.57701   10.70328  -10.05234
       H     0.13267   10.66237   -5.78407
       O    -0.71783   10.97232   -5.52942
      H1    -0.60287   11.14464   -4.57653
       H     2.67872   12.41620  -11.08368
       O     2.34814   11.87343  -10.32497
      H1     2.84854   11.05617  -10.36546
       H     2.36083   12.23117   -6.16872
       O     1.93135   11.38410   -6.21009
      H1     2.40800   10.99822   -6.93091
       H    -1.37747    8.66101   -6.09875
       O    -1.96777    8.84811   -6.81061
      H1    -2.00831    9.81409   -6.86248
       H     0.93573   15.50681   -9.89386
       O     0.76274   14.90892   -9.11813
      H1    -0.14608   14.58489   -9.30299
       H    -2.03995   11.22099  -13.83215
       O    -2.44920   10.86755  -14.59759
      H1    -3.38734   11.08602  -14.44092
       H    -1.79733   13.54027   -8.31598
       O    -2.07638   14.04650   -9.06860
      H1    -2.38669   13.38861   -9.68193
       H     1.49654    5.53446  -10.48214
       O     1.73681    6.41933  -10.20858
      H1     1.35406    7.01305  -10.85391
       H     2.09942   10.90586  -12.95823
       O     1.99121    9.97770  -13.16874
      H1     2.92562    9.70789  -13.25163
       H    -2.47078   15.82957  -11.84223
       O    -1.55756   15.49730  -11.84781
      H1    -1.58165   14.62196  -11.43364
       H    -2.94013    8.84445   -9.85930
       O    -3.78352    9.23394  -10.10740
      H1    -4.35742    8.88930   -9.40490
       H     0.39965   13.37869   -7.44173
       O    -0.48984   13.18498   -7.17670
      H1    -0.33341   12.42668   -6.61076
       H     0.08625    7.51868  -12.57807
       O     0.51800    8.07622  -11.87685
      H1     0.97782    8.77655  -12.37673
       H     3.55063    8.15894   -9.85917
       O     3.76067    8.78700   -9.16120
      H1     2.89218    8.85152   -8.74807

