60
frame 1 | Written by MDAnalysis XYZWriter (release 2.4.3)
       H    -8.87103   11.23255   -2.02233
       O    -9.41249   10.92280   -1.27531
      H1    -9.15871   11.48360   -0.51273
       H    -8.34692   14.18732   -0.32759
       O    -8.48052   13.23216   -0.24680
      H1    -8.03470   12.92303    0.55700
       H    -5.76736   12.24941   -5.12588
       O    -4.78389   12.30124   -5.09623
      H1    -4.48895   11.38913   -5.13315
       H    -7.95781   16.77376   -1.03849
       O    -7.98168   15.90992   -0.64465
      H1    -7.81313   16.10817    0.27743
       H    -7.70848   15.05390   -3.81202
       O    -6.79976   14.66919   -3.93832
      H1    -6.51298   14.34968   -3.07897
       H    -5.73354   15.45073   -1.21483
       O    -5.10202   16.14649   -1.46372
      H1    -5.22441   16.30392   -2.40131
       H    -2.42369   14.19436   -4.00733
       O    -3.16783   13.95034   -3.41284
      H1    -3.79952   13.49454   -3.97664
       H    -5.24279   13.14753   -1.47953
       O    -6.10183   13.54317   -1.49267
      H1    -6.64770   12.74067   -1.40424
       H    -3.69143   14.88248   -6.82231
       O    -4.58009   14.53683   -6.76348
      H1    -4.50470   13.83727   -6.11437
       H    -3.73447   15.87972    2.22127
       O    -3.84079   14.92663    2.19541
      H1    -3.00953   14.60575    2.58581
       H    -6.60676   10.97371    1.74671
       O    -7.39039   11.09791    1.22078
      H1    -7.20775   10.43458    0.55490
       H    -7.96626   12.18873   -4.20310
       O    -7.53958   11.42014   -3.79111
      H1    -8.06042   10.73208   -4.20693
       H    -0.80977   14.36793   -0.85518
       O    -0.11094   13.84329   -0.41505
      H1    -0.21578   14.17667    0.46482
       H    -4.18332   15.95232   -3.68109
       O    -4.61249   16.69633   -4.13566
      H1    -5.42474   16.27499   -4.46361
       H    -4.15800    9.00315   -2.43298
       O    -3.30864    8.67843   -2.79041
      H1    -3.48835    7.73251   -2.93486
       H    -2.73162   16.64168    0.05815
       O    -3.00765   17.57175   -0.09803
      H1    -2.22696   18.09623    0.10307
       H    -3.32004   11.00374   -0.57991
       O    -2.96098   10.64569    0.24442
      H1    -2.00755   10.80954    0.13646
       H    -4.13035   11.22801    1.82040
       O    -4.58542   11.07481    2.65327
      H1    -4.96183   11.92946    2.88371
       H    -6.03499    9.93558   -1.49272
       O    -5.35776   10.50777   -1.88000
      H1    -5.66269   10.77531   -2.76669
       H    -3.08301   14.59862    0.51173
       O    -2.81072   14.74920   -0.41439
      H1    -3.58466   15.06565   -0.86016

