60
frame 0 | Written by MDAnalysis XYZWriter (release 2.4.3)
       H    -8.88986   16.27658   -4.15847
       O    -8.96914   16.87042   -4.92640
      H1    -9.67950   17.46361   -4.63456
       H    -7.04476   13.54590   -0.63636
       O    -7.27827   14.18771   -1.30478
      H1    -7.84639   14.80092   -0.79318
       H   -12.71030   16.25966   -6.61400
       O   -11.79607   16.47942   -6.67427
      H1   -11.54092   15.91892   -7.41789
       H   -12.64907   16.58801   -2.35134
       O   -12.75819   16.77286   -1.41546
      H1   -12.90905   15.91258   -0.97328
       H    -9.62716   16.60942    0.11251
       O    -9.31168   15.72139   -0.12028
      H1    -9.86921   15.11302    0.38980
       H    -7.92787   14.21622   -4.74142
       O    -7.09486   13.77750   -4.42587
      H1    -6.63800   14.55502   -4.07167
       H    -5.38557   18.23433   -1.54006
       O    -5.61485   18.21160   -0.60391
      H1    -4.92717   17.69849   -0.17633
       H   -12.43153   18.30233   -6.58977
       O   -12.42129   19.24694   -6.38773
      H1   -13.20401   19.36214   -5.86211
       H    -6.01587   15.00211   -2.49091
       O    -5.22376   15.39136   -2.89620
      H1    -4.45750   15.00958   -2.45287
       H    -6.77885   18.01252   -8.28379
       O    -6.03682   18.31584   -8.79163
      H1    -5.51656   17.52400   -8.88038
       H    -4.38624   13.91644   -5.80873
       O    -5.11815   13.66767   -6.38503
      H1    -5.88605   13.60757   -5.79532
       H    -9.65864   15.63130   -1.96430
       O    -9.94094   15.44483   -2.86597
      H1   -10.67588   14.84179   -2.74958
       H    -8.93833   18.36938   -8.20950
       O    -8.53679   17.52206   -7.91601
      H1    -8.95887   17.35963   -7.05305
       H    -8.07871   18.97708   -4.14530
       O    -7.30298   19.21010   -3.59168
      H1    -6.56715   18.65993   -3.93382
       H    -2.27663   18.48797   -6.71799
       O    -2.37866   19.28487   -7.22351
      H1    -3.17669   19.20025   -7.75067
       H    -3.91726   17.54994   -4.89399
       O    -3.57056   17.05212   -5.65293
      H1    -4.34523   16.92487   -6.23173
       H    -4.72214   17.19069   -3.30079
       O    -4.71093   18.16183   -3.35288
      H1    -4.11880   18.42237   -2.61387
       H    -9.47712   13.98558   -6.48523
       O    -9.72792   14.15463   -5.58899
      H1    -9.81149   15.11252   -5.60989
       H    -8.98434   16.28274  -10.83088
       O    -8.89011   15.73498  -10.03527
      H1    -8.82115   16.36424   -9.30134
       H   -11.43787   18.13249   -0.53120
       O   -10.79095   18.36837    0.14569
      H1   -10.02007   18.60995   -0.33075

