60
frame 1 | Written by MDAnalysis XYZWriter (release 2.4.3)
       H   -13.07295   -6.70278   -4.43678
       O   -13.78805   -6.43839   -3.82200
      H1   -13.50794   -5.57478   -3.51148
       H   -12.13702   -7.76337   -6.33994
       O   -13.07344   -7.75943   -6.20755
      H1   -13.25183   -8.67567   -6.03803
       H   -16.29499  -13.81710   -5.11394
       O   -16.32553  -12.83899   -5.03659
      H1   -17.17734  -12.60228   -5.42811
       H   -12.47730  -10.78471   -3.64803
       O   -11.71917  -11.36143   -3.76300
      H1   -11.81739  -11.64476   -4.69280
       H   -15.61815   -8.70797   -9.65697
       O   -16.27558   -9.23054  -10.14849
      H1   -15.83291   -9.59984  -10.92127
       H   -18.66856  -12.54399   -6.75780
       O   -18.68748  -12.03569   -5.94324
      H1   -18.64830  -11.12819   -6.25297
       H   -13.77449  -12.14633   -3.13938
       O   -13.99758  -12.87770   -3.74816
      H1   -14.51886  -12.46307   -4.42780
       H   -14.00752  -10.52144   -6.68394
       O   -13.73603  -10.28419   -5.78515
      H1   -14.56564  -10.01091   -5.35407
       H   -17.01361  -10.19148   -2.73366
       O   -17.06940   -9.23814   -2.76436
      H1   -16.86664   -9.05472   -3.66597
       H   -16.63990  -10.08286   -8.43142
       O   -16.63953  -10.57587   -7.60155
      H1   -17.18596  -11.38729   -7.77689
       H   -15.15027  -11.15748   -8.20986
       O   -14.24443  -11.20499   -8.52379
      H1   -14.19946  -10.63175   -9.29459
       H   -12.66322  -10.28419   -1.37605
       O   -13.43869  -10.38396   -1.93488
      H1   -13.93765   -9.56918   -1.79378
       H   -14.09340   -7.93220   -7.54177
       O   -14.63775   -7.88327   -8.33092
      H1   -14.01676   -7.58894   -9.01176
       H   -15.53238   -6.20692   -8.59036
       O   -15.96770   -5.41289   -8.27942
      H1   -15.31666   -4.73364   -8.02634
       H   -18.59556   -4.84968   -5.25322
       O   -18.04980   -4.55470   -4.54469
      H1   -17.16140   -4.86431   -4.79745
       H   -16.97053  -12.45615   -3.26251
       O   -17.01543  -12.04327   -2.40442
      H1   -17.87897  -12.28988   -2.10309
       H   -19.04446   -6.65344   -7.32799
       O   -18.34295   -7.26539   -7.64837
      H1   -17.52670   -6.78042   -7.76226
       H   -15.65681   -8.35525   -2.26901
       O   -14.85943   -7.92553   -1.93005
      H1   -14.51297   -7.52585   -2.72263
       H   -15.98333   -6.10630   -6.37418
       O   -15.99195   -6.56390   -5.50284
      H1   -15.13339   -6.24597   -5.15796
       H   -16.39732   -9.72656   -6.19188
       O   -16.09203   -9.23603   -5.40045
      H1   -16.27902   -8.30568   -5.61548

