60
frame 1 | Written by MDAnalysis XYZWriter (release 2.4.3)
       H    11.80554  -14.52886   -2.09716
       O    11.00721  -14.26188   -2.56362
      H1    11.31200  -13.91770   -3.39381
       H    13.26896  -18.28853    0.86452
       O    13.65461  -17.76313    0.13090
      H1    13.30145  -18.16821   -0.66241
       H     9.61854  -11.53169   -3.20253
       O    10.12495  -11.19637   -2.44242
      H1    10.70445  -11.90141   -2.22880
       H    11.23792  -13.83593   -7.16691
       O    11.11563  -14.15111   -6.28135
      H1    11.91649  -14.64230   -6.03456
       H     7.31841  -15.16207   -0.74279
       O     7.24341  -15.96440   -1.24843
      H1     8.08069  -16.09468   -1.71596
       H    10.72355  -13.04440    1.13973
       O    10.95715  -12.28931    0.58997
      H1    10.48348  -11.57255    1.04813
       H    11.39081  -18.55529   -2.97092
       O    11.57935  -18.45326   -3.92040
      H1    10.70655  -18.39768   -4.30765
       H    11.07982  -17.25412    0.95709
       O    10.24545  -17.50879    0.54162
      H1    10.31536  -17.04298   -0.30524
       H    12.55233  -17.20808   -3.86169
       O    13.22724  -16.53144   -3.65664
      H1    14.01523  -17.05945   -3.56198
       H     7.23101  -12.00872   -1.81021
       O     6.53827  -11.40195   -2.08413
      H1     5.75446  -11.95045   -2.13276
       H    11.55655  -12.59586   -5.07424
       O    11.88650  -12.31435   -4.21248
      H1    11.18176  -11.70063   -3.89635
       H    13.50398  -15.73777   -1.95287
       O    13.55999  -14.95379   -1.41616
      H1    14.20033  -15.23823   -0.72778
       H    14.02794  -14.11004   -5.56263
       O    13.85588  -15.00832   -5.90717
      H1    13.69892  -15.56096   -5.13653
       H     8.47735  -14.44022   -2.94520
       O     8.21382  -14.45096   -3.84749
      H1     8.39755  -15.36707   -4.12792
       H    10.17927  -15.72721   -2.69478
       O     9.70824  -16.46123   -2.30748
      H1     9.72751  -17.10406   -3.05218
       H     8.94631  -16.17593    1.21269
       O     8.44511  -15.78136    1.92772
      H1     7.65107  -15.47115    1.45525
       H     9.83218  -15.61681   -6.02321
       O     9.16231  -16.27236   -5.80129
      H1     9.59840  -17.13341   -5.95396
       H     8.43989  -13.29039    0.18176
       O     8.65082  -13.47588   -0.77920
      H1     9.62684  -13.41908   -0.77190
       H     8.43162  -12.79780   -4.48914
       O     8.55168  -11.83194   -4.61207
      H1     8.61486  -11.62607   -5.52632
       H     6.45219  -14.32559   -5.83982
       O     5.93800  -13.74833   -5.24571
      H1     6.50284  -13.67473   -4.48716

