60
frame 0 | Written by MDAnalysis XYZWriter (release 2.4.3)
       H   -14.53614   11.12754   11.92341
       O   -14.27409   10.82871   11.07675
      H1   -13.56390   11.45000   10.79978
       H   -17.95144    4.05654   15.04319
       O   -18.55076    4.52441   14.45502
      H1   -19.39325    4.39112   14.93245
       H   -15.92313    6.43082   13.99462
       O   -16.15558    5.60820   13.47494
      H1   -16.99244    5.37146   13.90581
       H   -18.23734    9.53561   15.96250
       O   -17.51062   10.09592   15.62865
      H1   -17.92294   10.86873   15.18799
       H   -17.79741    9.49172   12.15170
       O   -17.56787    8.90234   12.89450
      H1   -18.40512    8.75462   13.36685
       H   -16.25340   10.21369   13.85942
       O   -15.50596   10.78897   13.70008
      H1   -15.17197   11.00113   14.58271
       H   -17.16429    7.07670   10.19113
       O   -17.96256    7.27206   10.66004
      H1   -17.70638    7.58789   11.56506
       H   -15.32003    4.04990   12.86862
       O   -15.04355    3.14489   12.55650
      H1   -14.35552    3.37856   11.93454
       H   -16.56767   13.71463   12.98410
       O   -16.60133   12.88392   12.49402
      H1   -16.22695   12.27038   13.13896
       H   -18.03866   11.79056   11.70413
       O   -18.35479   11.00808   11.24124
      H1   -17.90390   11.01291   10.36624
       H   -16.34187    4.92935    8.75370
       O   -16.23045    3.95671    8.74795
      H1   -15.28279    3.90042    8.70514
       H   -19.00139    6.00965   11.51974
       O   -19.30592    5.19341   11.89570
      H1   -18.81067    5.15103   12.70678
       H   -12.22647    9.10836    9.89265
       O   -13.06573    8.93732    9.46974
      H1   -13.67850    9.47493   10.01163
       H   -14.19467    8.06781   14.69604
       O   -15.03294    7.79294   14.26708
      H1   -15.37564    8.56751   13.82950
       H   -14.49038    7.45795   11.78230
       O   -15.07817    6.85855   11.34608
      H1   -15.64652    6.57737   12.05305
       H   -13.07524    4.91054   11.70507
       O   -12.72317    4.03886   11.49439
      H1   -12.00510    3.89069   12.12335
       H   -17.41679    3.20391    9.83115
       O   -18.21612    2.82845   10.21717
      H1   -18.50455    3.53924   10.78542
       H   -17.48311   10.46603    6.80726
       O   -16.81676   10.08355    7.41517
      H1   -17.38484    9.57187    8.02773
       H   -15.48961    7.04633    7.97801
       O   -16.04977    6.85502    8.74999
      H1   -15.46082    7.07853    9.47049
       H   -15.63377    8.71547    6.67107
       O   -15.20132    7.93462    6.30970
      H1   -14.62245    8.24578    5.61651

