60
frame 2 | Written by MDAnalysis XYZWriter (release 2.4.3)
       H     2.15433    5.33652   -6.18171
       O     2.00029    5.23760   -7.09478
      H1     2.36435    6.06033   -7.46248
       H     2.11403    6.84871   -4.42903
       O     3.01943    6.71174   -4.74078
      H1     3.32670    6.07378   -4.06383
       H     6.14702    3.42763   -8.45664
       O     5.58205    3.77172   -9.15889
      H1     4.71354    3.37700   -8.95384
       H     7.25976    8.87963   -4.06320
       O     7.67487    8.02383   -3.92921
      H1     8.53116    8.24918   -3.55586
       H     8.07047    1.75430   -8.07775
       O     7.62650    2.53082   -7.66246
      H1     8.34353    3.14471   -7.46228
       H     5.63936    1.06238   -4.14993
       O     6.20459    0.33874   -3.80618
      H1     6.59280    0.77830   -3.04240
       H     7.76434    3.18102   -3.04904
       O     7.83698    4.03628   -3.51166
      H1     7.20422    3.96578   -4.23923
       H     4.17781    5.67726   -1.59592
       O     4.31926    6.48313   -1.05561
      H1     5.13480    6.86176   -1.42558
       H     5.25273    1.18566   -6.75482
       O     4.91242    1.65480   -5.97600
      H1     5.26573    2.53810   -6.05894
       H     1.42227    2.41562   -4.95122
       O     0.52157    2.74021   -4.86357
      H1     0.29389    2.94100   -5.78486
       H     3.49999    2.15330   -8.02068
       O     3.19826    2.81441   -8.66200
      H1     3.07489    2.29621   -9.44499
       H     0.69348    4.88887   -2.25915
       O     1.16226    4.87533   -3.09005
      H1     0.68975    4.23974   -3.62778
       H     5.55165    4.84985   -6.06372
       O     5.80523    4.23644   -5.35665
      H1     5.14797    4.43682   -4.66738
       H     8.51953    5.33523   -6.62225
       O     8.35603    5.48240   -7.56434
      H1     9.22634    5.60244   -7.93017
       H     4.93761    2.51230   -0.68219
       O     4.62336    1.88945   -1.36156
      H1     3.74120    1.67415   -1.02669
       H     5.71812    4.14439   -2.71504
       O     4.74874    4.16545   -2.88132
      H1     4.44568    3.35028   -2.46041
       H     6.42433    5.97315   -7.54273
       O     5.50977    5.77457   -7.46661
      H1     5.31733    5.20738   -8.22142
       H     8.56401    6.67200   -4.93626
       O     9.19976    6.00211   -4.95366
      H1     8.91671    5.39957   -4.23948
       H     3.35005    7.11422   -9.47900
       O     3.45029    7.43429   -8.57899
      H1     4.12745    6.83811   -8.22331
       H     2.71800    0.51038   -4.01975
       O     2.91194    1.43705   -4.28069
      H1     3.75112    1.39873   -4.81911

