60
frame 2 | Written by MDAnalysis XYZWriter (release 2.4.3)
       H     1.31366  -18.93791   -7.85814
       O     2.09795  -18.49202   -8.22170
      H1     2.21569  -17.75779   -7.59709
       H     6.98724  -14.24642   -2.45190
       O     6.77843  -15.16147   -2.08499
      H1     7.67398  -15.55778   -2.00597
       H     0.63276  -13.60173   -1.03481
       O    -0.22749  -13.92702   -0.72565
      H1    -0.65495  -13.09217   -0.50533
       H     5.28711  -17.70503    0.30624
       O     5.32085  -17.87545   -0.65950
      H1     6.13513  -18.37243   -0.78458
       H     3.50807  -13.88396   -5.06297
       O     2.60845  -13.77563   -4.71826
      H1     2.69452  -13.44247   -3.81553
       H     6.13652  -16.39234   -3.16666
       O     5.84593  -17.21607   -3.57537
      H1     6.24617  -17.93434   -3.03287
       H     2.14566  -16.83207   -5.21632
       O     1.57188  -16.98537   -5.98246
      H1     1.61420  -16.13627   -6.44553
       H     1.21444  -13.18589   -6.03488
       O     0.47938  -12.86389   -6.50988
      H1     0.84021  -12.65694   -7.38215
       H    -1.34622  -15.43702   -4.59569
       O    -1.17904  -15.79930   -5.47828
      H1    -0.30419  -16.19095   -5.40871
       H    -0.93886  -16.13267    0.45335
       O    -0.55266  -16.93745    0.08207
      H1     0.24840  -16.68931   -0.39188
       H     3.08257  -15.49172   -4.10860
       O     3.04127  -16.42930   -3.82017
      H1     3.99727  -16.63059   -3.62679
       H     1.61142  -17.29148    1.80314
       O     2.43842  -17.05252    1.38718
      H1     2.15088  -16.86111    0.46448
       H     0.57171  -14.71337   -8.17850
       O     1.35540  -15.27425   -8.08157
      H1     1.42808  -15.68677   -8.96522
       H     3.93078  -13.03245   -7.06667
       O     4.08609  -13.93930   -7.36516
      H1     3.20944  -14.23170   -7.69262
       H    -1.85258  -17.37890   -3.42819
       O    -1.77907  -18.21938   -3.91205
      H1    -0.94160  -18.52080   -3.53214
       H     3.77335  -15.67067    0.54215
       O     3.84914  -15.20925   -0.30281
      H1     4.03828  -15.91929   -0.96586
       H     4.59325  -15.93956   -7.35168
       O     5.04944  -16.67509   -6.88076
      H1     5.65327  -16.16701   -6.32803
       H     2.37156  -12.48613   -1.70513
       O     2.21338  -13.45735   -1.81984
      H1     2.80467  -13.89577   -1.20369
       H     2.10896  -17.01665   -2.34894
       O     1.83471  -17.23601   -1.44120
      H1     2.49433  -17.88683   -1.13632
       H     5.97537  -14.48463   -4.74082
       O     5.38514  -13.79936   -4.40397
      H1     5.90188  -13.39810   -3.70977

