60
frame 1 | Written by MDAnalysis XYZWriter (release 2.4.3)
       H    13.56759   12.37903   -8.39887
       O    13.08619   11.81531   -8.98612
      H1    13.33526   10.92483   -8.71870
       H    16.57995   13.32526  -11.92367
       O    16.12725   13.78006  -11.22467
      H1    15.58667   14.40912  -11.70827
       H    15.36455    9.45420   -5.21473
       O    15.53630   10.17775   -5.80715
      H1    16.46204    9.97710   -6.07046
       H    11.85632   14.35789   -5.97412
       O    12.08446   15.00873   -6.68163
      H1    11.44757   14.81508   -7.41957
       H    10.41844   10.70346   -8.42096
       O    10.55439   10.04875   -7.71576
      H1     9.72547   10.08653   -7.23321
       H    13.16384   13.11348   -4.44237
       O    12.40377   13.55540   -4.05386
      H1    12.83571   14.35319   -3.74635
       H    16.94464   10.64723   -8.86181
       O    16.74401    9.68484   -8.77481
      H1    17.25099    9.40928   -7.98842
       H    10.74519   13.26670   -8.78452
       O    10.28706   13.91703   -8.25842
      H1     9.42229   13.98026   -8.72262
       H    15.04084   13.82944   -7.21573
       O    14.23287   13.98903   -7.73185
      H1    13.63691   14.36788   -7.07390
       H    10.47442   11.17173  -10.43716
       O     9.85443   11.77270   -9.93274
      H1     9.11435   11.17179   -9.79701
       H    11.63652   11.25612   -7.00693
       O    12.11178   11.77285   -6.34007
      H1    13.01825   11.88652   -6.70638
       H    16.46654   13.54840   -5.61385
       O    16.78452   14.01329   -6.39060
      H1    17.10266   13.32957   -6.98788
       H    13.68131    9.20861   -7.43554
       O    13.92321    9.30372   -8.34873
      H1    14.86017    9.45788   -8.33255
       H    13.87957   11.66327  -10.62620
       O    14.31334   11.80476  -11.47828
      H1    15.10384   12.35709  -11.26116
       H    15.14505   11.77403   -4.92605
       O    14.88899   12.68554   -4.70528
      H1    15.01533   12.70321   -3.74431
       H    12.22779    9.93292   -5.73350
       O    12.80795    9.14852   -5.68045
      H1    12.22667    8.42653   -6.00982
       H    12.86063   13.81085  -10.69565
       O    12.08942   14.35909  -10.87870
      H1    11.69485   13.94539  -11.63114
       H    10.74402   12.76566   -5.44811
       O     9.86939   13.05555   -5.75235
      H1    10.01155   13.36331   -6.64440
       H    11.61646   10.07435  -12.03978
       O    11.40640    9.89153  -11.11988
      H1    11.99836    9.16648  -10.95088
       H    13.32678    8.26410   -9.62202
       O    13.20898    7.79593  -10.47287
      H1    12.66682    7.02563  -10.29823

