60
frame 1 | Written by MDAnalysis XYZWriter (release 2.4.3)
       H    10.33166   -1.46657    3.13945
       O     9.64471   -1.34001    2.45984
      H1    10.14311   -0.87591    1.79262
       H     9.69689   -3.33704    6.04545
       O     9.64469   -4.06918    5.42067
      H1    10.20775   -3.74470    4.67901
       H    15.30784   -3.72783    5.90205
       O    15.24460   -4.45180    6.55132
      H1    16.13892   -4.86441    6.58917
       H    11.40432   -6.38291    5.79375
       O    11.09941   -7.30357    5.77345
      H1    10.94311   -7.53885    6.70743
       H    12.22674   -6.38123    1.80975
       O    12.52464   -5.76202    2.46620
      H1    12.01918   -4.95537    2.30170
       H    12.73363   -5.78277    4.41915
       O    12.77434   -5.16585    5.14441
      H1    13.69134   -4.91239    5.31079
       H    11.96035   -4.13614    8.33984
       O    11.61606   -5.02843    8.08118
      H1    12.36333   -5.63959    8.22705
       H    12.72038   -1.52435    2.65289
       O    13.31828   -1.71500    1.87852
      H1    12.75400   -1.56131    1.13522
       H     8.76521   -4.17858    8.40888
       O     8.58733   -3.31042    8.01437
      H1     7.66917   -3.11039    8.22797
       H     9.30991   -7.05702    4.69144
       O     8.97609   -6.39840    4.10268
      H1     9.25445   -5.58778    4.52915
       H     7.75819   -3.94915    5.72992
       O     6.88713   -3.76832    5.32783
      H1     7.06511   -3.51403    4.43223
       H    12.52905    0.68479    4.57395
       O    11.73972    0.80921    4.01948
      H1    11.10042    1.33335    4.51719
       H    11.89579   -2.07776    9.51949
       O    12.61479   -2.55528    9.08631
      H1    13.26808   -2.67558    9.80637
       H    13.17126   -0.58970    6.04659
       O    13.89946   -0.08303    5.66076
      H1    14.50506   -0.66184    5.16108
       H     8.67927   -0.59599    6.22976
       O     9.37106   -0.01233    6.62533
      H1     8.90434    0.32795    7.40753
       H    12.03191   -3.43046    4.59843
       O    11.51327   -2.68331    4.28786
      H1    11.42030   -2.17668    5.10534
       H    11.06756   -0.83236    6.91604
       O    11.76342   -1.45073    6.62080
      H1    12.29457   -1.52714    7.45639
       H    10.04903    2.87548    5.63937
       O     9.34588    2.36621    5.23678
      H1     9.42028    1.49690    5.73656
       H    10.59864   -3.96988    0.46826
       O    10.41495   -4.40319    1.32283
      H1    10.00795   -3.69286    1.81881
       H     9.90280   -1.77386   10.39802
       O    10.08729   -1.43804    9.50598
      H1     9.70568   -2.15400    8.96153

