60
frame 0 | Written by MDAnalysis XYZWriter (release 2.4.3)
       H   -19.61747   -7.30080  -14.68001
       O   -19.23108   -6.37600  -14.55109
      H1   -18.30172   -6.54894  -14.44318
       H   -15.91276   -0.96333  -17.39107
       O   -16.25123   -0.45870  -18.17216
      H1   -17.13747   -0.84327  -18.29574
       H   -15.81176   -2.78629  -15.12685
       O   -15.19210   -3.50443  -15.02560
      H1   -15.12127   -3.66466  -15.97833
       H   -19.27629   -5.38022  -16.18226
       O   -19.47894   -5.20874  -17.08732
      H1   -19.04086   -5.85691  -17.57976
       H   -18.88929   -2.43662  -14.20529
       O   -17.99848   -2.75157  -13.95699
      H1   -17.52432   -1.92406  -13.91948
       H   -14.83315   -2.86833  -17.99375
       O   -15.54620   -3.58375  -17.85625
      H1   -15.02047   -4.33735  -18.24975
       H   -16.71432   -0.06985  -12.43541
       O   -16.64957   -0.33983  -13.35763
      H1   -16.81724    0.43942  -13.87341
       H   -17.20996   -7.88367  -17.60668
       O   -17.21033   -6.92425  -17.49855
      H1   -16.84263   -6.85449  -16.58047
       H   -15.15764   -1.48476  -10.73486
       O   -16.05776   -1.59634  -10.38925
      H1   -16.51790   -2.02344  -11.10515
       H   -17.71410   -3.73606  -12.37431
       O   -17.34569   -3.85490  -11.49067
      H1   -16.42110   -4.05103  -11.58197
       H   -11.56979   -1.84025  -14.17298
       O   -11.99904   -1.11517  -13.73451
      H1   -11.34959   -0.42319  -13.62681
       H   -14.53592   -3.55619  -11.83181
       O   -14.89263   -4.31739  -12.33182
      H1   -15.03637   -4.06498  -13.27504
       H   -17.08775   -3.68665  -18.71592
       O   -17.89038   -3.91641  -19.23941
      H1   -18.49437   -4.17345  -18.52696
       H   -11.18359   -4.39578  -12.52484
       O   -11.37884   -4.21769  -13.47026
      H1   -12.00751   -4.92925  -13.54974
       H   -13.13883    0.13381  -13.91759
       O   -13.75021    0.80831  -14.23335
      H1   -14.29196    1.07476  -13.49769
       H   -15.43555   -6.04667  -15.15352
       O   -16.28948   -6.47022  -14.96486
      H1   -15.88435   -7.33068  -14.71053
       H   -12.88872   -5.24786  -15.42450
       O   -13.44681   -5.88211  -14.92134
      H1   -12.95634   -6.68616  -14.94738
       H   -11.46224   -3.89474  -16.79529
       O   -12.39692   -4.05251  -16.72901
      H1   -12.66929   -3.40921  -17.37795
       H   -14.06635   -2.16856  -15.78896
       O   -14.00478   -1.27489  -16.21127
      H1   -14.00495   -0.71782  -15.42529
       H   -19.21715   -0.28247  -16.95104
       O   -19.39681    0.07538  -16.09303
      H1   -18.74030    0.69190  -15.88631

