60
frame 1 | Written by MDAnalysis XYZWriter (release 2.4.3)
       H   -14.10701    7.65874    5.15995
       O   -15.02747    7.86957    5.41329
      H1   -15.29026    7.06917    5.82498
       H   -13.93581   12.43471    6.94860
       O   -12.99789   12.64311    7.04000
      H1   -12.58043   11.80707    6.84535
       H   -12.07548    6.59819    4.62535
       O   -12.49761    7.47924    4.66419
      H1   -12.63746    7.76716    3.73513
       H    -9.71931   11.64580    5.00720
       O    -9.55167   12.52225    4.68666
      H1    -9.68952   13.07662    5.45669
       H   -15.97015    7.74510    2.52357
       O   -15.14979    7.43129    2.15759
      H1   -15.10127    6.57757    2.56067
       H   -14.56602   14.64666    2.35915
       O   -14.91465   14.35001    1.52314
      H1   -15.43342   13.57171    1.75033
       H   -13.65069   10.09318    3.25371
       O   -13.17839    9.39910    2.79630
      H1   -13.86088    8.82220    2.44883
       H   -11.70261    9.69866    3.80481
       O   -10.77943    9.64838    4.01975
      H1   -10.29805    9.69615    3.16648
       H   -16.40388   11.59458    2.51500
       O   -16.53921   12.42255    2.98207
      H1   -17.50812   12.40696    3.13136
       H    -8.86110   10.04464    1.40194
       O    -9.25381    9.20069    1.61101
      H1    -9.88184    8.99388    0.90967
       H   -17.75576    8.13075    4.20980
       O   -17.15190    8.69947    3.76520
      H1   -16.30360    8.54993    4.20906
       H   -11.14869   12.93984    3.81152
       O   -11.97492   13.06982    3.30859
      H1   -12.27671   13.96262    3.52499
       H   -14.80757    7.92277    0.56211
       O   -14.43777    8.18208   -0.33015
      H1   -14.92698    8.96850   -0.56884
       H   -12.52545    9.82810    7.02691
       O   -11.88924   10.30438    6.48646
      H1   -11.78911    9.72371    5.72309
       H   -12.64680    9.81526    0.10856
       O   -11.76950    9.47443    0.31774
      H1   -11.94534    9.32370    1.26725
       H   -11.30505   13.54173    1.67118
       O   -10.98011   13.91434    0.80847
      H1   -10.10973   13.52394    0.70609
       H   -16.05161   11.04946    6.87040
       O   -15.75368   11.93807    6.71840
      H1   -15.22622   11.80707    5.92824
       H   -15.12634   11.63277    3.99886
       O   -14.24824   11.35875    4.35016
      H1   -13.65884   12.05750    4.06439
       H   -14.37384    9.16583    8.25407
       O   -13.67062    8.75126    7.72752
      H1   -14.16907    8.53673    6.90254
       H   -17.14548   10.33455    1.24753
       O   -16.18131   10.17764    1.35952
      H1   -15.78616   10.48309    0.51918

