60
frame 0 | Written by MDAnalysis XYZWriter (release 2.4.3)
       H    15.07485    3.77793   -9.47430
       O    15.45258    4.46348  -10.00452
      H1    16.32135    4.51390   -9.63751
       H    18.72042    9.87306   -9.57943
       O    18.94994   10.20496  -10.48025
      H1    18.49350    9.55564  -11.04517
       H    16.86602   10.08393  -13.16142
       O    17.67420   10.63358  -13.02162
      H1    17.56999   11.05843  -12.15881
       H    17.05761    2.74783  -17.67569
       O    16.86916    2.79293  -16.71911
      H1    16.13929    2.21463  -16.65722
       H    14.88516    4.94566  -12.65664
       O    14.06872    5.41566  -12.77325
      H1    14.38331    6.31242  -12.95979
       H    17.15760    4.20297  -13.16852
       O    16.92806    5.08249  -12.85320
      H1    17.39145    5.21972  -12.03591
       H    19.20350    4.86359  -15.53437
       O    19.29488    4.03914  -16.01625
      H1    18.39804    3.68969  -16.05541
       H    14.65665    4.75846  -16.49194
       O    15.40170    5.11191  -17.00412
      H1    15.99450    4.36747  -17.07206
       H    13.31201    8.82270  -13.00499
       O    13.95329    8.15674  -12.75286
      H1    14.53043    8.54043  -12.04792
       H    18.91997    6.38017  -10.73552
       O    17.97991    6.56368  -10.49977
      H1    17.93470    6.59641   -9.52924
       H    18.20720   11.88168  -16.28889
       O    18.27534   12.74487  -15.87539
      H1    18.22354   12.52061  -14.92496
       H    16.86379    1.90041  -12.77053
       O    16.85835    2.44392  -13.55071
      H1    16.36053    1.86557  -14.14993
       H    14.95267    6.76012  -17.93527
       O    14.47116    7.55778  -18.18618
      H1    15.16112    8.23025  -18.36668
       H    16.80102    7.92950  -16.55860
       O    17.15024    7.14526  -17.02762
      H1    16.43830    6.47705  -16.97979
       H    17.24805   10.23788  -17.52656
       O    18.19065   10.23524  -17.20725
      H1    18.63663   10.48510  -18.02296
       H    17.78866    6.40645  -15.27656
       O    18.46035    6.27979  -14.61186
      H1    17.92169    5.98005  -13.85351
       H    15.68200    9.59611  -14.81945
       O    16.05849    8.81920  -14.38748
      H1    15.33990    8.50383  -13.82004
       H    16.48380    7.77805  -11.16215
       O    16.10454    8.66378  -11.34042
      H1    15.94814    9.03139  -10.44062
       H    13.46142    4.69406  -14.19471
       O    13.17987    4.46534  -15.12919
      H1    13.12157    3.49260  -15.05501
       H    13.39415    8.39857  -16.90688
       O    12.63394    8.93964  -16.62681
      H1    12.06419    8.36448  -16.13032

