60
frame 2 | Written by MDAnalysis XYZWriter (release 2.4.3)
       H    -7.05494  -11.21218  -11.52311
       O    -7.57295  -11.84578  -11.02122
      H1    -7.13247  -11.81285  -10.18026
       H    -5.27847  -16.25034   -9.51809
       O    -6.04594  -15.67300   -9.46256
      H1    -5.74866  -14.84265   -9.10194
       H    -9.55184  -16.18922  -11.76063
       O    -9.78696  -15.56985  -12.46637
      H1    -9.09692  -14.90296  -12.39175
       H    -5.19508  -16.76637  -12.08387
       O    -5.79930  -15.97823  -12.10009
      H1    -5.84135  -15.75254  -11.14924
       H    -7.20707   -7.17117  -12.47768
       O    -7.35435   -7.16646  -11.51637
      H1    -8.03893   -7.81712  -11.34010
       H    -8.00265  -13.13595   -9.36374
       O    -7.83270  -12.98336   -8.40150
      H1    -8.67291  -12.62162   -8.11304
       H    -3.76688  -14.09742  -12.00435
       O    -4.25705  -13.65327  -12.74779
      H1    -5.06459  -14.14989  -12.82914
       H    -7.20684   -9.28116  -13.17177
       O    -6.57505   -9.85770  -12.72534
      H1    -6.09333  -10.28444  -13.43666
       H    -9.30863   -9.20249   -9.89923
       O    -9.16087   -9.38577  -10.83307
      H1    -8.42580  -10.04037  -10.83872
       H    -6.90504  -11.68235   -6.21476
       O    -6.05699  -11.47745   -6.61504
      H1    -6.15505  -11.88718   -7.47432
       H    -7.16392  -15.50698   -7.03664
       O    -7.41505  -14.72626   -6.57728
      H1    -7.62501  -14.08304   -7.27326
       H    -6.73180   -9.06916   -8.50814
       O    -7.21407   -9.07104   -7.67282
      H1    -6.78698   -9.83815   -7.23988
       H    -9.93325  -11.07253  -11.86482
       O   -10.30720  -11.30582  -12.73138
      H1   -11.09057  -10.73092  -12.75133
       H   -11.05702  -13.92477   -9.51676
       O   -11.02417  -13.18894  -10.13043
      H1   -11.48362  -13.45619  -10.90829
       H    -7.07576  -13.65667  -13.86245
       O    -7.78409  -13.72362  -13.22106
      H1    -7.62368  -13.00982  -12.59844
       H    -5.68326  -10.12506   -9.90032
       O    -5.53897  -11.01985   -9.56907
      H1    -4.71904  -11.25322  -10.04933
       H    -3.70336  -11.97002  -11.81054
       O    -3.30117  -11.44372  -11.11193
      H1    -3.33819  -10.52119  -11.47055
       H   -10.24125  -11.37407   -7.02697
       O    -9.97042  -11.36353   -7.96616
      H1   -10.68238  -11.79965   -8.36945
       H    -4.77769  -13.75430   -7.21207
       O    -4.53182  -13.54547   -8.12308
      H1    -4.34390  -12.59165   -8.14839
       H    -6.07103   -8.02961  -10.55126
       O    -5.50509   -8.39901   -9.83866
      H1    -5.44177   -7.62796   -9.26596

