60
frame 1 | Written by MDAnalysis XYZWriter (release 2.4.3)
       H    14.61895    4.81945   13.03313
       O    14.21856    4.02997   12.60319
      H1    13.72268    4.42226   11.88082
       H    16.05970    8.04524   14.75917
       O    16.68052    8.75824   14.85985
      H1    17.36772    8.34103   15.38246
       H    13.34144    1.08121   18.06185
       O    14.18560    1.50393   17.82390
      H1    14.20589    1.40343   16.84647
       H    14.11182    2.59152   15.10579
       O    15.00864    2.30372   15.17489
      H1    15.38095    2.63732   14.35321
       H    11.49698   10.34803   18.41803
       O    11.63182    9.97102   17.53524
      H1    10.75634    9.72855   17.19265
       H    16.38593    6.05261   15.97641
       O    15.47591    6.34999   16.09170
      H1    15.33151    6.45300   17.07035
       H     9.92746    9.00663   15.00719
       O     9.51234    9.22229   15.85548
      H1     9.22232    8.37444   16.19791
       H    11.38702    5.85441   14.75225
       O    10.59256    5.87389   14.21742
      H1    10.71116    6.72951   13.77279
       H    13.36042    6.95403   12.57625
       O    13.94925    6.75319   13.30029
      H1    13.85920    7.53712   13.88877
       H    13.68411    6.05636   15.92971
       O    12.73246    6.05885   15.81853
      H1    12.41339    5.60865   16.61806
       H    12.97804    3.15926   13.75466
       O    12.43606    2.75983   14.43317
      H1    12.02515    2.00522   14.00269
       H    13.02323    8.24974   15.67015
       O    13.88586    8.60971   15.37706
      H1    14.42684    8.43640   16.13718
       H     8.02065    6.37905   16.52353
       O     8.40357    7.04645   17.15994
      H1     9.12996    6.60025   17.57988
       H    18.22343    3.58669   15.16744
       O    17.54240    4.27029   15.13961
      H1    16.97296    4.02658   15.88145
       H    17.12210    3.54486   18.04987
       O    16.24413    3.77623   17.71402
      H1    15.84916    2.92620   17.45841
       H     9.40306    4.46372   14.90823
       O     8.73709    3.86812   15.29097
      H1     8.79836    4.01594   16.23356
       H    13.13507    9.61044   13.79250
       O    13.41011    9.57041   12.85042
      H1    12.55855    9.66509   12.40696
       H    10.32123    3.85862   17.69801
       O     9.39998    3.72245   17.92195
      H1     9.32995    2.76832   17.66422
       H    11.35690    7.21945   18.44729
       O    10.92270    6.42544   18.16347
      H1    10.62211    6.01434   18.98744
       H    12.07260    3.31855   16.41254
       O    12.40833    3.43292   17.31935
      H1    13.00758    2.69155   17.50070

