60
frame 2 | Written by MDAnalysis XYZWriter (release 2.4.3)
       H    16.44984   -0.31559  -10.39661
       O    16.49392    0.59447  -10.14342
      H1    15.69454    0.80338   -9.63817
       H    12.97815    4.62671   -6.81435
       O    12.15957    4.73535   -7.21709
      H1    11.53023    4.20127   -6.69507
       H    14.75791    4.19765  -11.26059
       O    14.14468    3.63908  -11.74138
      H1    14.73689    2.90207  -11.92808
       H    14.82261   -0.73662   -4.80119
       O    13.92396   -0.37338   -4.66810
      H1    14.00838    0.11406   -3.83956
       H    17.40282    1.17154   -3.62674
       O    17.29548    2.01789   -4.06197
      H1    17.65473    2.60879   -3.36542
       H    17.12213    5.66170   -8.75836
       O    17.21426    5.98694   -9.65857
      H1    17.82566    5.34725  -10.01989
       H    16.52193    4.46248   -7.15860
       O    16.34599    5.40841   -7.03045
      H1    15.62829    5.55370   -7.67893
       H    14.09592    5.16569   -4.48542
       O    14.27652    4.73462   -5.34905
      H1    15.10015    5.19772   -5.59974
       H    15.15249    4.28657   -2.63760
       O    15.33750    3.42163   -2.17822
      H1    15.53700    2.83845   -2.92823
       H    18.72478    0.73344   -7.62043
       O    17.76534    0.71592   -7.74877
      H1    17.63051    0.48119   -8.67298
       H    12.12934    1.36243   -7.15504
       O    11.38101    0.80544   -7.35319
      H1    11.53844    0.00851   -6.81105
       H    16.39964    1.11409  -12.05029
       O    16.36111    1.58645  -12.87764
      H1    16.44441    0.90039  -13.57269
       H    17.51950   -1.03482   -7.08572
       O    17.58510   -1.90338   -6.70417
      H1    18.41107   -1.89860   -6.20259
       H    17.42073   -1.75867  -11.91529
       O    17.02116   -1.86392  -11.04750
      H1    17.73203   -2.06497  -10.50140
       H    17.89324    6.80077   -6.74273
       O    17.83641    7.78509   -6.70845
      H1    18.79311    7.94469   -6.78486
       H    14.29347   -2.43453   -5.72010
       O    15.15127   -2.68413   -5.36629
      H1    15.78797   -2.43048   -6.04497
       H    12.66018    3.34942   -9.96060
       O    12.14457    2.94469   -9.23795
      H1    12.12828    3.62480   -8.57554
       H    13.11291    0.64204   -8.81326
       O    13.65954   -0.14275   -8.85284
      H1    13.36041   -0.67458   -8.11734
       H    16.50911    2.03040   -7.86459
       O    15.63266    2.31094   -8.14839
      H1    15.13485    2.18853   -7.33334
       H    13.82058    2.82455   -5.69989
       O    13.68146    2.11024   -6.30524
      H1    14.13743    1.34608   -5.88925

