60
frame 2 | Written by MDAnalysis XYZWriter (release 2.4.3)
       H    -7.38047   -2.45679   -6.87403
       O    -7.48594   -3.40877   -6.96470
      H1    -6.79553   -3.67365   -7.58631
       H    -8.99418    2.21064  -12.19244
       O    -8.51375    1.99959  -11.37702
      H1    -7.74274    1.47483  -11.62788
       H    -9.79986   -0.95817  -12.33415
       O    -9.16942   -1.61913  -12.63601
      H1    -8.75931   -1.92432  -11.81477
       H    -7.83177   -2.89074   -9.87508
       O    -7.77115   -1.99553  -10.20490
      H1    -6.83920   -1.79954  -10.12483
       H    -4.27908   -4.97846  -11.23546
       O    -4.03015   -5.07159  -10.34146
      H1    -3.35768   -5.76007  -10.30452
       H   -10.87634   -3.10439   -7.65538
       O   -10.07750   -2.63739   -7.92288
      H1    -9.37010   -3.29633   -7.78356
       H    -6.14399    0.11297  -12.93495
       O    -6.10872    0.76562  -12.23743
      H1    -5.88758    0.21131  -11.47751
       H    -7.24464    0.05595   -5.91179
       O    -6.75271   -0.78232   -6.14132
      H1    -7.07476   -1.37219   -5.43991
       H   -11.42241   -1.57460  -10.58449
       O   -11.85502   -2.25757  -10.02507
      H1   -11.19404   -2.48542   -9.37397
       H    -8.99732   -5.44049  -10.00193
       O    -8.39537   -4.85844  -10.50913
      H1    -8.00251   -5.57155  -11.04427
       H    -4.21995   -6.34664   -7.39396
       O    -4.99289   -6.31841   -7.93127
      H1    -4.85059   -5.56307   -8.54659
       H    -4.59107    1.01915  -12.88382
       O    -3.70441    0.89650  -13.25424
      H1    -3.70436    0.04204  -13.67146
       H    -5.04605   -0.03672   -9.44483
       O    -5.19154   -0.72065  -10.12837
      H1    -4.29742   -1.02867  -10.25617
       H   -11.08185   -3.41600  -11.09480
       O   -10.80234   -4.09851  -11.70982
      H1    -9.92113   -4.30262  -11.40452
       H    -5.16311    2.16098   -9.63693
       O    -5.12240    1.64349   -8.83984
      H1    -5.99821    1.67794   -8.50763
       H    -9.06498   -0.70964   -8.78191
       O    -9.32182    0.10986   -8.34856
      H1    -8.67546    0.77115   -8.63122
       H    -4.69590   -2.70994   -8.64042
       O    -5.42425   -3.38824   -8.71269
      H1    -5.07802   -3.93625   -9.45949
       H    -2.22999   -1.54926  -10.46884
       O    -2.93108   -2.08094  -10.86792
      H1    -3.00447   -2.88348  -10.31438
       H    -6.87887   -3.31525  -13.13896
       O    -6.89347   -4.21211  -13.48035
      H1    -6.58662   -4.18582  -14.41852
       H    -3.43860   -1.65926   -7.02489
       O    -2.94717   -2.19916   -7.64512
      H1    -2.50258   -2.84910   -7.09111

