60
frame 1 | Written by MDAnalysis XYZWriter (release 2.4.3)
       H    -4.29972  -12.59719   -3.63446
       O    -5.03550  -12.29748   -4.18648
      H1    -5.19633  -13.05698   -4.76110
       H    -1.31712  -16.62916   -4.22272
       O    -1.15524  -16.89962   -5.12166
      H1    -1.63421  -16.27315   -5.67169
       H    -8.05375  -12.74220   -3.60335
       O    -8.86374  -12.97313   -4.11646
      H1    -8.68537  -13.87951   -4.33860
       H    -2.70270  -12.46993   -1.77648
       O    -3.10574  -12.98283   -2.50460
      H1    -2.53937  -13.73060   -2.67391
       H    -2.49371  -14.50300    2.04863
       O    -2.60546  -14.88470    1.17677
      H1    -3.27840  -15.56981    1.34160
       H    -2.02721  -15.85632   -2.01867
       O    -1.93335  -15.48709   -2.90976
      H1    -2.76915  -15.70161   -3.34830
       H    -0.31447  -14.19448   -5.81829
       O    -1.28056  -14.09066   -5.81450
      H1    -1.43254  -13.32798   -5.22182
       H    -6.74512  -18.81709   -4.31541
       O    -6.49563  -18.25810   -3.56426
      H1    -5.79621  -17.68597   -3.85274
       H    -8.79442  -16.09464   -3.15225
       O    -7.88178  -15.75769   -3.17724
      H1    -7.41614  -16.50662   -3.52370
       H    -4.67365  -16.59328   -2.55011
       O    -4.45136  -16.54546   -3.48620
      H1    -4.06242  -17.39356   -3.69214
       H    -0.78622  -15.76147   -0.08393
       O    -0.86904  -16.67977   -0.33783
      H1    -0.03770  -16.87330   -0.81141
       H    -8.01184  -15.85849   -6.95591
       O    -8.04670  -14.98343   -6.58245
      H1    -8.19229  -14.43553   -7.34146
       H    -5.31894  -15.28389   -5.60303
       O    -5.45161  -14.38438   -5.92928
      H1    -6.28680  -14.40319   -6.40143
       H    -8.18030  -15.29607    0.18274
       O    -7.43232  -15.15387   -0.41123
      H1    -7.82767  -15.21701   -1.27786
       H     1.94564  -15.83317   -5.04408
       O     1.13407  -15.44228   -5.34508
      H1     0.42726  -16.00554   -5.03859
       H    -4.96515  -18.98707   -6.55003
       O    -5.06320  -18.08191   -6.27187
      H1    -5.77158  -17.68885   -6.82210
       H    -3.99470  -13.95791   -7.16644
       O    -3.54935  -13.90161   -8.02481
      H1    -3.49998  -12.93767   -8.21958
       H    -4.20218  -15.02182   -0.58196
       O    -4.50751  -15.80977   -0.97883
      H1    -5.44010  -15.78362   -0.80360
       H    -4.40615  -17.57587    1.38080
       O    -4.02331  -17.06548    2.11970
      H1    -4.63406  -17.17045    2.84475
       H    -6.15181  -12.24257   -2.71089
       O    -6.92666  -12.33705   -2.13041
      H1    -7.22194  -11.43391   -1.97282

