60
frame 1 | Written by MDAnalysis XYZWriter (release 2.4.3)
       H   -14.88932  -15.33669    9.91205
       O   -15.24226  -14.45910    9.91712
      H1   -16.13510  -14.57875    9.60290
       H   -13.89755  -13.55790   15.93370
       O   -13.51232  -12.97235   15.29825
      H1   -13.85989  -13.34324   14.47494
       H   -16.56429  -12.31497   15.40887
       O   -17.15969  -13.07876   15.48526
      H1   -17.42277  -13.22622   14.55007
       H   -15.21329  -14.14361   17.57007
       O   -15.27995  -14.51607   16.67383
      H1   -16.09155  -14.12214   16.31612
       H   -16.73287  -16.11192   11.82112
       O   -16.41218  -15.68098   12.63512
      H1   -15.51837  -15.42828   12.36242
       H   -10.12746  -18.52051   16.29690
       O   -10.22135  -18.55678   15.33924
      H1   -11.09695  -18.18301   15.21819
       H   -10.73546  -15.35962   15.68540
       O   -10.30330  -15.72635   16.48030
      H1   -10.99365  -15.88811   17.14673
       H   -15.62073  -18.17347   14.19409
       O   -14.94051  -17.63172   13.69861
      H1   -15.50978  -17.02107   13.25860
       H   -14.38001  -13.90614   11.72363
       O   -13.92017  -13.97393   12.57718
      H1   -13.35540  -14.76299   12.48150
       H   -13.87131  -16.80170    9.35765
       O   -14.76977  -17.13462    9.16731
      H1   -14.67382  -18.05623    9.39028
       H   -11.60400  -16.04577   13.19450
       O   -12.41830  -16.15166   12.62710
      H1   -12.29932  -17.02054   12.26774
       H   -17.51078  -14.30948   12.79697
       O   -18.17569  -13.62395   12.96470
      H1   -18.83724  -14.10193   13.43975
       H   -12.34305  -14.73872    9.75386
       O   -12.51262  -15.68437    9.95765
      H1   -12.14977  -15.70296   10.86434
       H   -17.89545  -17.49483   10.92231
       O   -17.27152  -17.00649   10.41426
      H1   -16.59471  -17.64817   10.18482
       H   -17.90223  -16.87219    8.89322
       O   -18.02018  -16.73925    7.95902
      H1   -17.15170  -16.91107    7.57259
       H   -11.08236  -18.33082   11.65625
       O   -11.83816  -18.64157   11.16129
      H1   -12.40297  -19.15310   11.71760
       H   -10.82614  -13.40230   13.79458
       O   -11.06273  -14.10026   14.41455
      H1   -11.95823  -13.83217   14.66187
       H   -16.45496  -16.47591   17.04598
       O   -16.79766  -17.13262   17.61754
      H1   -17.75961  -16.95834   17.61218
       H   -13.33547  -18.34190   16.18204
       O   -12.87379  -17.78742   15.59064
      H1   -13.55714  -17.42460   14.98521
       H   -17.25378  -19.18562   14.81065
       O   -16.40977  -19.22496   15.29387
      H1   -16.53487  -18.52248   15.94304

