60
frame 0 | Written by MDAnalysis XYZWriter (release 2.4.3)
       H    14.41129  -11.95882    6.62115
       O    13.63214  -11.77784    6.10289
      H1    13.63875  -12.47502    5.43701
       H    10.48940  -12.77553   12.04853
       O    10.94956  -13.05121   12.85899
      H1    10.42101  -12.70284   13.56899
       H     8.49686  -14.94115   11.16760
       O     9.02850  -15.44441   10.55890
      H1     8.44656  -15.95964   10.00314
       H     8.65715  -12.43416    9.91387
       O     8.75706  -12.46189    8.96291
      H1     8.56208  -11.50673    8.74496
       H    15.38326  -13.69795    6.65044
       O    16.09674  -13.34104    6.12630
      H1    15.88047  -13.58560    5.22215
       H    14.11705  -15.31753    5.55235
       O    13.66319  -14.80736    6.22887
      H1    13.60587  -15.32020    7.01529
       H    12.59611  -18.55120   11.42768
       O    12.10167  -17.74189   11.41119
      H1    12.73776  -17.02963   11.66426
       H    14.60147  -11.22163   10.45599
       O    14.88620  -11.60587    9.61172
      H1    14.83335  -10.88483    8.99551
       H    10.34321  -12.10047    9.75145
       O    10.97791  -11.72361   10.37742
      H1    11.75060  -12.27795   10.27129
       H    11.75728  -10.78224    8.51021
       O    11.47065  -10.91297    7.62336
      H1    12.28859  -11.07936    7.12942
       H    11.84945  -17.75505    9.57006
       O    11.94152  -18.10298    8.65800
      H1    12.78042  -18.56746    8.67329
       H     9.47437  -16.63958    6.64418
       O     9.60432  -15.82820    6.17668
      H1     9.97663  -15.22907    6.83599
       H    13.25076  -10.03885   11.62033
       O    14.18613  -10.32701   11.68481
      H1    14.19616  -11.04399   12.30888
       H    11.57394  -15.71874    8.57647
       O    11.01221  -14.94358    8.64624
      H1    10.28559  -15.24897    9.24408
       H    17.94288  -13.66737    9.89614
       O    17.27757  -14.26843    9.49982
      H1    16.50141  -13.69421    9.39378
       H    13.42693  -17.10050    8.41228
       O    13.95038  -16.31236    8.59872
      H1    14.89905  -16.50808    8.40754
       H    11.14625  -16.09578   12.26871
       O    10.92578  -15.83144   13.16182
      H1    10.77084  -14.87134   13.07024
       H    13.74705  -13.06700   10.13564
       O    12.93064  -13.51945   10.37697
      H1    12.68550  -14.02008    9.58923
       H    13.50724  -11.96638   14.55633
       O    13.58744  -12.26316   13.64722
      H1    12.73394  -12.60884   13.39035
       H    13.27278  -15.29997   13.04588
       O    13.54269  -15.68430   12.20782
      H1    13.66940  -14.90747   11.60120

