60
frame 2 | Written by MDAnalysis XYZWriter (release 2.4.3)
       H   -11.77432    3.00170  -12.43430
       O   -12.70493    3.00976  -12.17474
      H1   -12.69840    3.34208  -11.25359
       H    -8.69620    5.74778  -10.19903
       O    -8.79131    6.71381  -10.12507
      H1    -9.38907    6.84668   -9.38310
       H   -13.19259    7.30475  -10.07753
       O   -12.33884    7.02086  -10.38391
      H1   -11.96142    7.83304  -10.77327
       H    -6.51799    3.21273   -6.77237
       O    -5.72467    3.59048   -6.32979
      H1    -5.28884    4.07701   -7.06481
       H    -8.99418    2.21064  -12.19244
       O    -8.51375    1.99959  -11.37702
      H1    -7.74274    1.47483  -11.62788
       H   -10.80644    0.93701  -10.89455
       O   -11.12312    0.15330  -11.39387
      H1   -12.01493    0.40092  -11.64629
       H    -5.44179    4.63062  -10.06464
       O    -6.11808    3.97575  -10.12613
      H1    -6.85972    4.37701   -9.68255
       H   -12.31630    5.21995  -10.08829
       O   -12.20365    4.33970   -9.72562
      H1   -12.84592    4.32770   -9.01431
       H   -11.03274    4.23908   -6.18330
       O   -10.41558    4.11805   -6.90040
      H1   -10.71767    3.30068   -7.28387
       H    -8.91481    6.60259   -4.76657
       O    -9.19010    5.72598   -4.43742
      H1    -9.14751    5.20165   -5.24935
       H   -12.02511    0.78339   -6.39016
       O   -12.71010    1.42439   -6.56843
      H1   -12.58649    1.66217   -7.49751
       H    -9.22005    3.17728  -10.12638
       O    -9.31052    3.94327   -9.55191
      H1   -10.26066    3.79495   -9.39448
       H    -7.47539    6.70405   -7.12188
       O    -7.19233    6.15924   -7.86296
      H1    -7.61148    6.60180   -8.63103
       H   -11.00532    1.00735   -8.55910
       O   -11.55005    1.66907   -8.97645
      H1   -12.39986    1.25138   -9.06192
       H    -9.62054    6.18500  -11.86016
       O    -9.87066    6.28589  -12.76161
      H1    -9.35524    7.01316  -13.08071
       H    -9.06498   -0.70964   -8.78191
       O    -9.32182    0.10986   -8.34856
      H1    -8.67546    0.77115   -8.63122
       H    -8.26152    2.14972   -7.23232
       O    -7.81006    2.25183   -8.10098
      H1    -8.21791    3.03750   -8.51036
       H   -14.59550    4.93359   -7.78087
       O   -14.39205    3.97826   -7.64072
      H1   -14.79438    3.87784   -6.76647
       H    -9.60240    3.23445  -14.04396
       O   -10.12126    2.50017  -13.68956
      H1    -9.73414    1.76158  -14.13778
       H   -10.60405    5.81189   -7.77522
       O   -10.66609    6.68172   -8.16841
      H1   -10.92258    6.59072   -9.07751

