60
frame 1 | Written by MDAnalysis XYZWriter (release 2.4.3)
       H     0.63258  -13.36400    8.73815
       O     1.00725  -13.19199    9.60757
      H1     1.37539  -14.03248    9.86611
       H     3.55879  -13.15561    1.52762
       O     3.99047  -12.68532    0.79943
      H1     4.70909  -12.22953    1.24535
       H     2.86355  -16.61069    9.15879
       O     2.52049  -15.71378    9.10423
      H1     2.27107  -15.63876    8.17412
       H     4.01826  -16.58631    4.79493
       O     3.96562  -16.47524    3.81663
      H1     4.66057  -17.10205    3.54117
       H     0.65545  -15.27396    5.94790
       O     1.05627  -15.93917    6.50529
      H1     1.42770  -16.57532    5.88729
       H    -1.85089  -16.73477    2.85966
       O    -1.51890  -16.35220    3.69436
      H1    -2.18081  -15.67852    3.88503
       H     4.81853  -14.14138    3.53697
       O     4.96619  -13.40755    4.15646
      H1     4.24539  -13.47124    4.80800
       H     3.78822  -14.43053    7.04388
       O     3.29856  -14.16513    6.27226
      H1     2.54417  -14.70571    6.36462
       H     0.03145  -17.09655    3.65940
       O     0.86168  -17.59114    3.64049
      H1     0.50581  -18.44244    3.90135
       H    -2.49371  -14.50300    2.04863
       O    -2.60546  -14.88470    1.17677
      H1    -3.27840  -15.56981    1.34160
       H     0.96766  -10.56334    3.57349
       O     0.32435  -10.87604    4.19650
      H1     0.69876  -10.64361    5.05335
       H     2.51045  -14.78633    2.62777
       O     2.18220  -13.88151    2.63747
      H1     1.49740  -13.90165    1.96955
       H    -1.15361  -13.18457    6.91373
       O    -0.29677  -12.91243    7.26122
      H1     0.32532  -12.82330    6.52561
       H     2.71478  -12.41825    6.44721
       O     2.36905  -11.51336    6.36782
      H1     2.44450  -11.24387    7.28578
       H     0.08899  -15.90024    7.85904
       O    -0.57687  -15.72237    8.53340
      H1    -0.57757  -14.76219    8.63908
       H    -3.93528  -14.32748    4.28656
       O    -3.13929  -14.12442    3.83880
      H1    -3.19519  -13.15840    3.81161
       H     3.11156  -16.67082    2.41328
       O     2.64051  -16.55434    1.58539
      H1     1.78947  -16.92076    1.81268
       H    -0.89500  -16.85274    6.67271
       O    -1.70306  -17.29166    6.35659
      H1    -1.70537  -17.13450    5.40664
       H    -1.11268  -10.19830    6.92429
       O    -0.22189  -10.11721    7.31769
      H1     0.07853  -11.02993    7.30943
       H     1.14409  -13.96060    4.05380
       O     0.45607  -14.05193    4.75779
      H1    -0.22156  -13.43097    4.46081

