60
frame 4 | Written by MDAnalysis XYZWriter (release 2.4.3)
       H   -16.17373   11.57000    0.21560
       O   -16.32671   11.44878   -0.71672
      H1   -16.46314   12.29427   -1.09284
       H   -10.91928    7.34508   -4.29154
       O    -9.98228    7.40696   -4.60589
      H1    -9.56221    7.70663   -3.82743
       H   -16.65135   11.84106   -5.24665
       O   -17.05717   11.75700   -4.40846
      H1   -17.34361   10.83572   -4.27008
       H   -12.02290    8.82278   -0.84298
       O   -11.00475    8.65806   -0.80539
      H1   -10.97108    8.09875    0.03196
       H   -14.91493    6.88253   -1.67805
       O   -14.42791    7.24275   -2.48809
      H1   -14.48519    8.22996   -2.56064
       H   -13.02229   13.58678   -5.41949
       O   -13.49650   13.88538   -6.20678
      H1   -12.80444   14.15816   -6.86662
       H   -12.63654    9.31830   -5.88212
       O   -13.02485    8.73222   -6.57626
      H1   -13.81206    9.12499   -6.94012
       H   -12.85956   11.73179    1.76343
       O   -13.47068   11.03451    2.03125
      H1   -13.78799   10.53211    1.25590
       H   -14.90201   13.03287   -1.76951
       O   -14.02879   12.79710   -2.12150
      H1   -13.59867   12.69503   -1.27210
       H   -17.03057    8.49748   -4.64792
       O   -17.57480    9.18402   -4.21303
      H1   -17.39723    9.16354   -3.22399
       H   -14.42388   11.13457   -2.64110
       O   -14.71272   10.26679   -2.99761
      H1   -15.49438   10.44112   -3.51226
       H   -17.93220    7.26643   -6.66509
       O   -17.07957    7.40986   -6.15079
      H1   -16.41800    7.45682   -6.85787
       H   -12.01605   11.96254   -4.44981
       O   -11.83913   12.87838   -4.13129
      H1   -12.14313   12.95331   -3.21196
       H   -14.21966    8.68620    0.27391
       O   -14.00937    9.50773   -0.19958
      H1   -14.69665    9.75800   -0.75596
       H   -17.84767   13.96758   -1.68928
       O   -17.01099   13.98631   -2.26102
      H1   -17.17944   13.38909   -3.10111
       H   -11.85407   13.26330   -0.31222
       O   -12.62432   13.11317    0.26210
      H1   -13.17593   13.92270    0.32857
       H   -15.49111   11.42280   -7.45540
       O   -15.63360   12.21866   -6.94794
      H1   -14.83214   12.67684   -6.74556
       H   -11.14603   10.62767   -5.81541
       O   -11.49693   10.21093   -5.03935
      H1   -10.70626   10.02032   -4.45448
       H   -18.39464    8.76067   -1.14072
       O   -17.47664    8.90896   -1.50644
      H1   -17.22148    9.73127   -1.14287
       H   -12.85356    7.65651   -5.22489
       O   -12.68142    6.87877   -4.62924
      H1   -13.27057    6.85492   -3.84898

