60
frame 2 | Written by MDAnalysis XYZWriter (release 2.4.3)
       H   -13.53169   -2.66647   -5.01606
       O   -13.80218   -2.91885   -5.89211
      H1   -14.58716   -2.41755   -6.08838
       H   -10.64491   -5.92129   -4.28205
       O   -11.39107   -5.34201   -4.55422
      H1   -11.98713   -5.45377   -3.81114
       H   -14.07582   -5.80905   -2.66395
       O   -13.57467   -5.00669   -2.72468
      H1   -14.24437   -4.34634   -2.91374
       H   -13.25894   -7.94737   -5.38646
       O   -13.46427   -7.00272   -5.41560
      H1   -12.63693   -6.52913   -5.47379
       H   -13.41917  -10.32641   -5.59002
       O   -13.22610   -9.58951   -4.97745
      H1   -13.23090   -9.96711   -4.09534
       H   -15.00927   -5.94249   -0.20870
       O   -15.10394   -5.02512   -0.48649
      H1   -14.51375   -4.94493   -1.24976
       H   -13.43747   -0.98852   -3.33077
       O   -13.35436   -1.94900   -3.36982
      H1   -12.40979   -2.09209   -3.56160
       H   -13.63054   -7.69158    0.29664
       O   -14.50309   -7.53400    0.73976
      H1   -14.22724   -7.51734    1.68797
       H   -16.57549  -10.11590   -3.82314
       O   -16.83819   -9.24001   -3.46958
      H1   -16.82535   -8.70556   -4.28254
       H   -10.91866   -6.24815    0.19860
       O   -10.51331   -6.04110   -0.66456
      H1   -10.96451   -6.66193   -1.25877
       H   -14.35863  -10.40422    0.73747
       O   -14.96712  -10.11875    0.06101
      H1   -14.87878   -9.13780    0.10909
       H   -18.76130   -5.70235   -4.41278
       O   -18.36780   -5.27379   -3.65108
      H1   -17.49861   -4.98652   -4.00182
       H   -17.84608   -5.50998   -2.00359
       O   -17.70269   -5.72764   -1.06690
      H1   -16.76063   -5.48964   -0.94355
       H   -15.75819   -3.31741   -0.12353
       O   -15.76875   -2.34885   -0.31187
      H1   -14.89290   -2.02162   -0.02094
       H   -15.30210   -8.28767   -2.85940
       O   -14.64268   -7.57714   -2.90234
      H1   -14.33725   -7.69295   -3.79254
       H   -15.71808   -3.92176   -4.14846
       O   -15.90866   -3.57705   -3.25945
      H1   -16.00106   -2.60948   -3.38185
       H   -12.65401   -8.14980   -2.52698
       O   -11.71024   -8.23100   -2.41761
      H1   -11.30274   -8.28519   -3.30130
       H   -15.81990   -4.83269   -6.42168
       O   -15.96401   -5.20018   -5.54320
      H1   -15.16982   -5.66430   -5.30512
       H   -10.58897   -3.40221   -4.19575
       O   -10.70401   -2.49517   -3.88586
      H1   -10.82974   -2.61932   -2.93652
       H   -10.80797   -3.84430   -0.98090
       O   -10.98991   -2.92976   -1.30379
      H1   -11.83703   -2.81697   -0.82626

