60
frame 2 | Written by MDAnalysis XYZWriter (release 2.4.3)
       H    -7.94601    9.32326  -14.34600
       O    -8.67048    8.71651  -14.26338
      H1    -9.38758    9.17897  -14.68587
       H   -12.32230    6.76006  -17.19101
       O   -12.66734    7.62328  -17.38325
      H1   -13.39990    7.69025  -16.78107
       H   -12.66807    2.58516  -17.84001
       O   -13.00312    2.42063  -18.75389
      H1   -12.53370    3.12717  -19.18730
       H   -11.85881    8.67786  -16.07730
       O   -11.42482    9.01942  -15.29460
      H1   -11.71683    8.44495  -14.57473
       H    -9.22550    9.03828  -17.25932
       O    -9.73964    9.65044  -17.81291
      H1    -9.92217    9.18685  -18.61424
       H   -10.71958   12.66373  -17.31422
       O    -9.82521   12.34568  -17.36198
      H1    -9.97295   11.39769  -17.36802
       H    -9.80268    4.85847  -17.62154
       O   -10.33380    5.52751  -17.17592
      H1    -9.77164    6.28894  -17.04000
       H   -14.89456    5.75003  -12.95487
       O   -14.99912    6.63761  -13.27428
      H1   -15.07608    7.20065  -12.49318
       H   -14.50476    9.11777  -15.82666
       O   -14.65985    8.17432  -15.70768
      H1   -14.40419    8.01098  -14.79863
       H   -11.52918   10.39998  -17.39538
       O   -12.19374   11.05779  -17.51268
      H1   -12.56168   11.15859  -16.62660
       H    -7.75974    7.22352  -17.92302
       O    -8.21897    7.18138  -17.05976
      H1    -7.50490    7.02496  -16.44798
       H    -9.48050    5.20321  -15.47789
       O    -8.83173    4.91649  -14.82026
      H1    -9.09534    5.29247  -13.97773
       H   -12.92764    7.33387  -12.49937
       O   -12.21657    7.36079  -13.16004
      H1   -11.50293    6.85859  -12.70824
       H   -14.40372   11.89095  -15.75468
       O   -14.59044   11.01700  -16.01753
      H1   -15.40547   11.07487  -16.55741
       H   -17.35504   10.26246  -17.69429
       O   -17.21045   11.07970  -17.21072
      H1   -17.48495   10.90324  -16.27515
       H   -17.33543    7.99016  -18.54548
       O   -17.63619    8.86069  -18.89976
      H1   -16.87765    9.25126  -19.37799
       H   -12.08559   10.61809  -14.25474
       O   -12.31301   11.55453  -14.42105
      H1   -11.47647   11.97332  -14.13450
       H   -14.28796    3.31955  -17.72390
       O   -14.96067    3.52219  -17.07524
      H1   -15.75502    3.09029  -17.41977
       H   -15.73170    4.24550  -15.53303
       O   -16.31399    4.16446  -14.75296
      H1   -15.85979    4.64463  -14.06050
       H   -15.94945    7.00243  -16.61650
       O   -16.55270    6.76127  -17.33640
      H1   -17.22366    6.24265  -16.88706

