60
frame 1 | Written by MDAnalysis XYZWriter (release 2.4.3)
       H    14.61895    4.81945   13.03313
       O    14.21856    4.02997   12.60319
      H1    13.72268    4.42226   11.88082
       H     7.18694    8.46828    8.71248
       O     8.07369    8.84381    8.64907
      H1     8.23033    9.29935    9.47263
       H     9.61632    9.16258   12.68749
       O    10.32170    8.75576   13.19197
      H1    10.94887    8.47311   12.52013
       H     9.60490    3.75108   10.34791
       O    10.31599    3.80512    9.69600
      H1    10.40288    2.88625    9.37112
       H    14.44766    5.58570    7.51460
       O    13.84125    6.02654    8.11850
      H1    13.44094    5.31677    8.65719
       H    11.48084   10.70252   10.00105
       O    11.45529   10.46540   10.93398
      H1    11.54332   11.33069   11.38054
       H    16.17474    6.54455    9.21374
       O    16.20682    7.53358    9.14900
      H1    15.83174    7.82252    9.99085
       H    14.99246    7.75966   12.36643
       O    15.48587    8.34338   11.76680
      H1    15.00200    9.16311   11.81099
       H    14.58870    9.75101    9.10140
       O    13.95893    9.26854    8.55338
      H1    14.38625    8.42939    8.34935
       H    11.38702    5.85441   14.75225
       O    10.59256    5.87389   14.21742
      H1    10.71116    6.72951   13.77279
       H    10.74802    9.90571    7.85464
       O    11.45968   10.56499    7.96021
      H1    12.28993   10.01800    7.85345
       H    11.03833    5.81119   11.82924
       O    11.56509    6.53817   11.51197
      H1    11.37685    6.62121   10.57988
       H    13.36042    6.95403   12.57625
       O    13.94925    6.75319   13.30029
      H1    13.85920    7.53712   13.88877
       H    13.43294    3.23094    9.20272
       O    13.20577    3.97914    9.78970
      H1    12.44458    3.64382   10.29857
       H     6.92479    8.15064   12.15081
       O     7.43370    7.72642   11.48430
      H1     7.69204    8.47204   10.90624
       H     7.05948    5.58359   10.81637
       O     6.63331    5.12922   10.06280
      H1     7.36157    5.09048    9.41506
       H    13.13507    9.61044   13.79250
       O    13.41011    9.57041   12.85042
      H1    12.55855    9.66509   12.40696
       H    12.29427    7.32844    9.49288
       O    11.55326    7.10099    8.92466
      H1    11.96988    6.70338    8.16284
       H     9.73583   10.36741   10.75921
       O     8.83089   10.14320   10.98267
      H1     8.36323   10.99209   10.87715
       H     8.57849    6.48657    8.47071
       O     8.48151    5.62925    8.03867
      H1     9.18505    5.15634    8.44573

