60
frame 0 | Written by MDAnalysis XYZWriter (release 2.4.3)
       H    13.00046   -5.23809   12.87754
       O    13.37294   -5.33655   11.98648
      H1    13.12658   -6.23409   11.68312
       H    10.89856   -5.39502   12.89945
       O    10.72785   -4.96364   13.73938
      H1    11.56591   -4.92898   14.16785
       H     9.18670   -7.46249   15.72064
       O     9.66686   -7.69925   14.91478
      H1    10.32523   -7.04185   14.81313
       H     7.39764   -3.66380   12.73247
       O     7.87806   -4.24472   12.14947
      H1     8.59319   -3.65668   11.84018
       H    10.63625   -6.52861   10.34050
       O    10.62787   -6.76078   11.30967
      H1     9.74057   -7.12854   11.47682
       H    10.17485   -8.28198    6.60690
       O    10.15515   -8.57007    7.54900
      H1    10.69516   -9.35487    7.54936
       H     6.95024   -6.30640   13.30061
       O     7.13171   -7.27232   13.17259
      H1     7.14714   -7.41218   12.21919
       H    13.55426   -6.10529    6.74511
       O    13.43151   -6.03056    7.69003
      H1    12.50489   -5.83208    7.74154
       H     9.12786   -2.45130    9.69036
       O     9.57656   -2.77437   10.47925
      H1    10.09973   -2.02623   10.77998
       H    14.41328   -8.30149   11.56204
       O    14.11989   -7.66806   10.91932
      H1    13.41194   -8.12309   10.43831
       H     9.22089   -9.20050   13.10869
       O     9.26231   -9.31685   12.18716
      H1     8.85094   -8.51089   11.82528
       H     7.52087   -7.02907    9.93211
       O     7.66469   -7.71149   10.58582
      H1     7.36826   -8.49322   10.15331
       H    11.54865   -3.57733   10.31783
       O    12.45252   -3.22693   10.39083
      H1    12.96876   -3.99902   10.65322
       H     7.20847   -5.74626    7.46236
       O     7.86883   -5.67045    8.17789
      H1     7.55949   -4.90633    8.69056
       H    13.25076  -10.03885   11.62033
       O    14.18613  -10.32701   11.68481
      H1    14.19616  -11.04399   12.30888
       H    13.31063   -7.41663   13.94590
       O    12.73348   -6.95226   14.58050
      H1    13.37293   -6.76977   15.30345
       H     8.08461   -5.32848   15.86829
       O     8.25833   -4.57251   15.30604
      H1     8.76376   -4.99300   14.59826
       H     9.94913   -3.33524   13.90030
       O     9.96967   -2.35914   13.89911
      H1    10.79710   -2.08574   13.50364
       H    11.11627   -8.86574   11.57037
       O    11.60160   -9.39884   10.94709
      H1    11.08046  -10.19894   10.92273
       H    10.47064   -6.96512    8.19708
       O    10.47462   -6.08784    8.58311
      H1     9.54910   -5.84495    8.53693

