60
frame 1 | Written by MDAnalysis XYZWriter (release 2.4.3)
       H     0.80133   -7.49993   -3.15280
       O     0.85649   -8.41978   -3.42904
      H1     1.19698   -8.35837   -4.34262
       H     5.81224   -6.75895   -8.53008
       O     5.69105   -6.24210   -7.72851
      H1     5.15603   -6.83948   -7.20532
       H     0.39540   -4.77312   -8.63124
       O    -0.53913   -4.75711   -8.88397
      H1    -0.94929   -4.69769   -8.00233
       H     0.67669   -5.30077   -5.06652
       O    -0.01410   -5.86339   -4.70392
      H1    -0.57198   -6.13465   -5.42666
       H     4.39149   -1.77467   -4.14149
       O     3.61754   -1.21465   -4.05236
      H1     3.22781   -1.12060   -4.91634
       H     3.66507   -7.80406   -5.98719
       O     4.52398   -8.16395   -5.82675
      H1     4.73125   -7.98510   -4.91000
       H     4.61288   -4.32401   -2.09251
       O     5.04548   -4.20718   -1.22411
      H1     5.94484   -3.85608   -1.46307
       H     1.31087   -5.23247   -1.73170
       O     1.60012   -6.12157   -1.84919
      H1     1.68712   -6.45397   -0.93300
       H    -1.05506   -1.31607   -3.80875
       O    -0.92501   -1.64915   -4.72852
      H1    -0.00034   -1.38909   -4.98748
       H     5.27649   -5.07124   -9.04569
       O     4.71452   -4.70754   -9.73847
      H1     3.84903   -4.66585   -9.34880
       H     2.32454   -5.13573   -7.48641
       O     2.10599   -4.99012   -8.41927
      H1     2.28058   -4.02702   -8.49066
       H    -1.36191   -3.65234   -5.55431
       O    -1.58004   -4.15640   -6.34727
      H1    -1.99036   -4.94468   -5.95370
       H    -1.04655   -6.09921   -3.22035
       O    -1.70251   -6.43706   -2.59909
      H1    -1.85978   -5.63686   -2.07365
       H     1.83884   -1.58746   -8.42115
       O     2.31109   -2.27300   -8.91406
      H1     1.93828   -2.17150   -9.81518
       H     0.98763   -0.40491   -6.59708
       O     1.38716   -0.49434   -5.70492
      H1     1.41499    0.45044   -5.39379
       H     3.94259   -5.88294   -3.28513
       O     4.06908   -5.07659   -3.77856
      H1     4.99666   -4.98599   -3.97969
       H     1.43296   -7.03569   -5.86903
       O     1.69155   -7.99130   -6.00232
      H1     1.11998   -8.34744   -6.65632
       H     1.12383   -2.61753   -2.25098
       O     0.90571   -3.53944   -2.11681
      H1     1.04432   -3.61709   -1.18424
       H     1.48717   -3.47262   -5.63197
       O     1.90689   -4.32844   -5.59072
      H1     2.67561   -4.15439   -5.06916
       H     2.45674   -1.15688   -2.69677
       O     1.79205   -0.84845   -2.05084
      H1     2.21566   -0.96917   -1.19718

