60
frame 1 | Written by MDAnalysis XYZWriter (release 2.4.3)
       H    -7.58953   -4.26138   -7.00212
       O    -8.40419   -4.73020   -7.12332
      H1    -8.37382   -5.45553   -6.46673
       H    -5.60540  -10.07721   -4.29909
       O    -6.16366   -9.27890   -4.37664
      H1    -6.01278   -9.02475   -5.31235
       H    -7.01240   -3.83288   -9.51956
       O    -6.76888   -2.96336   -9.16052
      H1    -5.89483   -3.14945   -8.81771
       H    -4.04539   -5.22437  -10.77437
       O    -3.82411   -5.52965   -9.90199
      H1    -2.93606   -5.90267  -10.10053
       H    -3.14857   -6.89067   -6.27520
       O    -2.35176   -6.78571   -5.73666
      H1    -2.40704   -7.45616   -5.02377
       H    -6.02851   -5.86382   -2.88108
       O    -6.36471   -5.53118   -3.70416
      H1    -5.58102   -5.22481   -4.17969
       H    -6.55042   -7.62698  -10.66584
       O    -6.68430   -7.67617   -9.69149
      H1    -7.48554   -8.22099   -9.61273
       H    -4.93563   -7.85739   -3.48085
       O    -4.29496   -7.81401   -2.74023
      H1    -3.50864   -7.40570   -3.09064
       H    -5.55614   -3.29462   -5.36854
       O    -5.46244   -3.86336   -6.14155
      H1    -4.68659   -3.48775   -6.53707
       H    -8.29599   -5.45384   -8.59555
       O    -8.33694   -5.51945   -9.55805
      H1    -7.80712   -6.29091   -9.73465
       H    -4.10304   -6.16264   -8.14897
       O    -4.41548   -6.21058   -7.24498
      H1    -4.69110   -5.30385   -7.04980
       H    -9.42265   -8.40262  -10.43610
       O    -9.05706   -8.84346   -9.66436
      H1    -9.59735   -8.51162   -8.93285
       H    -7.68190  -10.82764   -7.70107
       O    -7.07743  -10.71364   -8.42746
      H1    -7.68315  -10.48702   -9.14619
       H    -5.95962   -7.06919   -6.93161
       O    -6.66179   -7.70568   -6.69856
      H1    -6.63720   -8.29753   -7.44827
       H    -3.44444   -2.67671   -8.86153
       O    -4.10184   -3.21036   -8.38317
      H1    -3.89610   -4.08038   -8.78491
       H    -4.17594  -10.21498   -8.49127
       O    -4.36058  -11.03774   -8.00837
      H1    -5.23114  -10.85110   -7.71083
       H   -10.32883   -8.88827   -6.85167
       O   -10.42482   -7.93030   -6.80012
      H1    -9.99095   -7.69852   -5.97116
       H    -7.77219   -7.00519   -5.41844
       O    -8.67274   -6.62602   -5.33492
      H1    -8.64731   -6.23875   -4.46513
       H    -4.75430   -8.57426   -9.84178
       O    -3.89563   -8.94167   -9.62058
      H1    -3.36113   -8.23899   -9.28630
       H    -7.46956  -10.45086   -5.21085
       O    -8.22151  -10.49830   -5.82177
      H1    -8.66151  -11.27348   -5.42388

