60
frame 1 | Written by MDAnalysis XYZWriter (release 2.4.3)
       H    17.17608  -13.52951   16.63223
       O    16.39317  -13.97321   16.34945
      H1    16.00361  -13.42363   15.67257
       H    16.33549  -13.70228   18.40830
       O    16.21640  -13.80724   19.34706
      H1    15.27482  -14.01882   19.38622
       H    14.74466   -8.01819   11.56677
       O    15.23403   -7.80557   10.74543
      H1    14.54167   -7.40399   10.21134
       H    15.29178  -12.08064    9.71429
       O    14.51216  -12.56911    9.41270
      H1    14.78035  -13.30752    8.85929
       H    19.43333  -10.13367   18.53537
       O    18.90800   -9.33591   18.30108
      H1    18.03811   -9.69732   18.30908
       H    14.52787   -9.49423   13.56867
       O    14.72586   -8.52610   13.48213
      H1    15.61977   -8.41788   13.83278
       H    15.58819  -10.97468   15.33583
       O    16.51498  -10.68211   15.27231
      H1    16.80427  -11.18386   14.49368
       H    17.08363  -11.33258   12.18971
       O    16.50888  -11.88047   12.75047
      H1    15.72543  -11.33898   12.90381
       H    15.57578  -16.06386   15.17438
       O    15.23944  -16.98016   15.25970
      H1    15.42657  -17.11180   16.20153
       H    13.96518  -13.91699   15.40113
       O    14.30701  -13.73028   14.51058
      H1    13.70248  -14.19431   13.90248
       H    16.14427  -14.90832   11.74081
       O    16.96673  -14.48319   11.95662
      H1    16.75368  -13.56534   12.13342
       H    18.67268   -9.68446   12.11784
       O    18.54472   -9.89718   13.04747
      H1    19.38060  -10.21312   13.31714
       H    15.35827   -6.40222   17.15438
       O    16.28686   -6.27302   17.01098
      H1    16.56314   -7.00371   16.44872
       H    17.57485  -11.53563    9.59823
       O    16.85362  -11.45770    8.94395
      H1    16.86605  -12.35529    8.58344
       H    17.24748  -14.95693   13.48049
       O    17.63713  -15.17633   14.31384
      H1    17.09374  -14.64745   14.91405
       H    11.52073  -10.16523   16.50207
       O    12.46406  -10.02922   16.68001
      H1    12.69668   -9.14700   16.36318
       H    14.90562  -11.61579   17.47093
       O    14.19322  -12.17279   17.13805
      H1    13.52834  -11.55806   16.80504
       H    13.29732  -11.98213   14.20953
       O    13.46427  -11.11679   13.80936
      H1    12.62698  -11.05669   13.33172
       H    17.82587   -7.78573   15.13805
       O    17.14553   -7.48721   14.51721
      H1    17.08344   -6.55340   14.64120
       H    16.88154  -10.81927   17.07998
       O    16.61749  -10.73924   18.03191
      H1    16.17891   -9.84982   18.02983

