60
frame 1 | Written by MDAnalysis XYZWriter (release 2.4.3)
       H   -15.88766   -5.52891   16.21063
       O   -15.13892   -5.22122   15.66260
      H1   -15.47094   -5.42034   14.76052
       H   -18.70588  -12.80037   11.39382
       O   -18.72077  -12.28151   10.58270
      H1   -18.54671  -11.38504   10.94412
       H   -12.99789   -7.41582   12.35268
       O   -12.53919   -8.11493   11.83190
      H1   -11.68479   -8.06581   12.26720
       H   -19.30869   -8.93384    9.45979
       O   -19.14801   -9.12951   10.38671
      H1   -18.30148   -8.74878   10.50958
       H   -19.22653   -6.53768   12.26253
       O   -18.62003   -6.93416   12.88240
      H1   -19.15720   -7.61738   13.24973
       H   -16.98908   -6.97494   18.34639
       O   -16.80887   -6.64918   17.45524
      H1   -17.05274   -7.43165   16.93959
       H   -14.80482   -2.62119   17.19771
       O   -15.27072   -2.37360   16.35752
      H1   -15.16911   -3.17250   15.85237
       H   -13.88225   -8.93538    9.03131
       O   -14.17895   -8.33872    9.74390
      H1   -13.57095   -8.47866   10.47603
       H   -15.14612   -3.27855   12.73352
       O   -14.95381   -4.12464   13.07043
      H1   -15.17490   -4.71642   12.34391
       H   -16.01726  -10.62036   14.15104
       O   -16.65230  -10.53605   13.40777
      H1   -16.09050  -10.69772   12.65098
       H   -16.77173   -7.41144   12.71991
       O   -15.84913   -7.20779   12.97582
      H1   -15.61809   -7.86909   13.62607
       H   -15.38635   -5.85854   10.40750
       O   -16.03946   -5.25128   10.80849
      H1   -16.33909   -5.74127   11.56210
       H   -15.37630   -9.52472   10.15204
       O   -16.15948   -9.94277   10.56046
      H1   -16.62129  -10.34865    9.78894
       H   -17.92426   -5.91471   15.88959
       O   -18.08347   -5.53058   15.01824
      H1   -18.32875   -6.27553   14.47572
       H   -18.04424   -3.11193   11.25958
       O   -18.32485   -2.59469   10.47919
      H1   -19.27379   -2.74393   10.48027
       H   -18.75954   -9.33569   16.55615
       O   -18.58660   -8.87399   15.72068
      H1   -18.90802   -9.51503   15.09556
       H   -17.28144   -5.12066    9.69749
       O   -17.97514   -5.39744    9.09446
      H1   -18.13138   -4.61958    8.54077
       H   -13.37597   -9.72976   12.47712
       O   -13.51508  -10.53813   13.04687
      H1   -13.81110  -10.09153   13.85063
       H   -18.52832   -2.51950   13.48817
       O   -19.01523   -3.35419   13.39006
      H1   -18.50174   -4.03435   13.85308
       H   -14.84651   -7.27566   15.67591
       O   -14.49733   -8.12944   15.31400
      H1   -13.57428   -7.94162   15.22901

