60
frame 1 | Written by MDAnalysis XYZWriter (release 2.4.3)
       H    -3.15647    4.98012  -10.60887
       O    -2.39067    5.39760  -11.03538
      H1    -1.94814    4.66040  -11.46643
       H    -4.98384    7.43623   -8.11908
       O    -5.47685    8.25692   -8.09144
      H1    -6.15302    8.16250   -8.77259
       H    -7.38498    7.26186  -10.08421
       O    -7.19541    8.18216  -10.25240
      H1    -7.98036    8.60151   -9.90505
       H    -3.72130    6.50152  -11.56164
       O    -4.12332    7.32789  -11.88055
      H1    -4.02920    7.89939  -11.06933
       H    -4.96085    2.42337   -7.07591
       O    -4.47879    2.59554   -6.26541
      H1    -3.72396    3.10771   -6.58847
       H    -6.18035    2.75076   -9.32408
       O    -5.97910    2.11216   -8.62380
      H1    -6.82042    2.20978   -8.17136
       H    -3.86617    5.65000  -13.83112
       O    -3.37337    5.97262  -14.62718
      H1    -3.30686    6.90936  -14.45077
       H    -2.25073    6.11937   -7.80614
       O    -2.99902    6.41877   -7.23900
      H1    -2.75113    7.31315   -6.91919
       H    -9.46551    5.28192  -11.42256
       O    -9.48809    4.56937  -10.81214
      H1    -8.69522    4.10899  -11.08100
       H    -7.13059    5.59986   -7.84512
       O    -7.10242    5.65621   -8.79968
      H1    -7.84589    5.09132   -9.06011
       H    -4.21095    4.63164   -8.57080
       O    -4.58492    4.83497   -9.46763
      H1    -5.49056    5.04453   -9.20329
       H    -7.01443    6.16607  -12.58731
       O    -6.13564    5.79754  -12.79348
      H1    -5.53763    6.46967  -12.47798
       H    -4.48846    0.93697   -9.08431
       O    -3.96594    0.17339   -9.38425
      H1    -3.49885   -0.16197   -8.60210
       H    -6.57584    4.28673  -11.75900
       O    -6.95341    3.54518  -11.22232
      H1    -7.14545    2.86561  -11.87485
       H    -1.70853    1.55465   -9.87767
       O    -1.16795    1.76181   -9.08870
      H1    -0.53426    2.38800   -9.46225
       H    -1.23437    6.06634   -9.66357
       O    -0.79749    6.40443   -8.87205
      H1     0.13853    6.43395   -9.01388
       H    -2.94013    8.84445   -9.85930
       O    -3.78352    9.23394  -10.10740
      H1    -4.35742    8.88930   -9.40490
       H     0.95833    3.54243   -9.21115
       O     0.26763    3.86843   -9.79611
      H1    -0.23899    4.45712   -9.21877
       H    -1.92765    3.96235   -7.12035
       O    -2.54953    3.68894   -7.79710
      H1    -2.06199    2.95398   -8.19036
       H    -4.82985    3.75695  -12.12516
       O    -4.17616    3.88333  -12.82370
      H1    -4.11082    3.00437  -13.23580

