60
frame 0 | Written by MDAnalysis XYZWriter (release 2.4.3)
       H   -15.78736  -15.39499    9.69555
       O   -15.20879  -14.73588    9.31117
      H1   -15.73449  -13.93383    9.37427
       H   -16.44260  -11.48602   16.07029
       O   -16.89548  -12.19539   15.59443
      H1   -17.06873  -11.78723   14.73020
       H   -16.34667  -13.95163   16.43728
       O   -15.93271  -14.28739   17.22756
      H1   -15.21068  -13.63096   17.40581
       H   -16.60940  -15.69440   12.49026
       O   -16.23415  -15.16854   13.22682
      H1   -15.55686  -14.63098   12.85720
       H   -18.56032  -12.98503   11.46440
       O   -18.75500  -12.69506   10.56566
      H1   -18.92751  -11.74833   10.68916
       H   -15.86835  -11.89557   10.04705
       O   -16.46479  -12.18373    9.32592
      H1   -17.22313  -12.62009    9.73643
       H   -15.63163  -17.96823   14.33935
       O   -14.95189  -17.60939   13.71788
      H1   -15.36875  -16.83485   13.35860
       H   -13.30112  -14.47428   12.81125
       O   -14.06598  -14.26463   12.21772
      H1   -13.93837  -14.92040   11.50467
       H   -14.33282  -18.00926   11.90538
       O   -14.36012  -17.84566   10.95700
      H1   -13.85597  -18.56662   10.59555
       H   -11.18460  -17.20149   12.41625
       O   -11.90746  -16.56961   12.40204
      H1   -11.95144  -16.35735   11.48019
       H   -18.02204  -12.97928   16.64722
       O   -18.79505  -13.15533   17.22433
      H1   -18.50170  -14.00246   17.65310
       H   -17.49655  -14.02768   13.31013
       O   -18.34535  -13.59621   13.07702
      H1   -18.99272  -14.26788   13.33095
       H   -12.10445  -15.94131    9.46066
       O   -12.06085  -15.13310   10.01441
      H1   -12.93222  -14.76073    9.90917
       H   -18.10043  -16.57854   11.22088
       O   -17.13102  -16.56762   11.17821
      H1   -16.90743  -17.21131   10.49705
       H   -14.44626  -12.59906   11.48876
       O   -14.69775  -11.69483   11.26685
      H1   -14.01293  -11.47161   10.62652
       H   -17.92409  -15.51237    7.55564
       O   -17.69533  -16.44006    7.43646
      H1   -16.73671  -16.44474    7.52962
       H   -12.29684  -18.32839   13.68716
       O   -12.17716  -19.28782   13.62000
      H1   -12.21092  -19.51839   14.55496
       H   -11.15097  -14.06475   13.46049
       O   -11.58081  -14.60506   14.11773
      H1   -11.46134  -15.51351   13.78566
       H   -12.82537  -17.69007   16.02942
       O   -12.57339  -17.05705   15.36575
      H1   -13.33615  -16.95399   14.72340
       H   -17.53761  -19.09614   14.53559
       O   -16.83777  -19.14161   15.21203
      H1   -17.10656  -18.54936   15.92453

