60
frame 2 | Written by MDAnalysis XYZWriter (release 2.4.3)
       H    11.96806   -9.95974   -7.16118
       O    12.18052  -10.87498   -7.33168
      H1    12.26600  -10.91691   -8.30310
       H    11.01197  -13.55216   -8.48063
       O    10.62525  -13.09815   -7.76768
      H1    11.07716  -12.24242   -7.78865
       H    13.65925  -13.35556  -11.54471
       O    14.36589  -13.00728  -10.99198
      H1    15.16726  -13.09388  -11.50869
       H     9.37030   -7.02410  -12.23877
       O     8.47025   -7.14381  -11.95979
      H1     8.20539   -6.38040  -11.44995
       H     9.85666   -8.53467  -10.43143
       O    10.76163   -8.73683  -10.68901
      H1    10.74109   -8.91482  -11.62720
       H    13.85760  -10.53510   -6.35999
       O    14.76451  -10.27043   -6.00755
      H1    15.12008   -9.66020   -6.66405
       H    13.13755  -10.88026  -10.59964
       O    13.00499  -10.06570  -10.08182
      H1    12.13335   -9.78630  -10.38638
       H    11.86603   -7.40875  -13.15901
       O    10.95088   -7.73559  -13.26517
      H1    11.03033   -8.32593  -14.03935
       H    12.07748  -14.25888  -10.87876
       O    12.01222  -14.68678  -10.00723
      H1    12.19951  -15.61657  -10.16028
       H     7.59400   -8.02418  -10.14841
       O     8.15985   -8.54492   -9.55801
      H1     7.95003   -9.44866   -9.79849
       H    10.81481   -8.18452   -5.58191
       O    11.04970   -8.39987   -6.49261
      H1    10.22171   -8.35863   -6.94834
       H    10.86825   -7.08831  -10.56234
       O    10.78522   -6.10713  -10.65691
      H1     9.96269   -5.88331  -10.16197
       H    12.74274  -13.45341  -12.97083
       O    12.02252  -13.28146  -12.33115
      H1    11.38018  -13.97335  -12.44834
       H    13.32729   -9.52952  -14.77913
       O    13.56194  -10.05922  -14.02432
      H1    14.09487   -9.38978  -13.51138
       H     8.83433  -10.59721  -12.27909
       O     8.00288  -11.02447  -12.18952
      H1     7.49782  -10.72184  -12.93722
       H    15.50912   -7.15378   -9.80912
       O    15.73199   -6.21812   -9.76530
      H1    14.92791   -5.78753   -9.40676
       H    11.96861  -10.41841  -13.23288
       O    11.10893  -10.53391  -12.86222
      H1    11.13989  -11.43185  -12.53370
       H    15.02061   -8.33005  -11.88645
       O    14.81046   -8.06492  -12.78097
      H1    15.61300   -8.11152  -13.33327
       H    14.78282   -9.57457   -9.84654
       O    15.35619   -8.85076  -10.11130
      H1    16.25464   -9.15968   -9.85673
       H    13.43471   -7.39847   -5.59061
       O    13.33647   -6.97408   -6.44416
      H1    12.55558   -7.40647   -6.81613

