60
frame 1 | Written by MDAnalysis XYZWriter (release 2.4.3)
       H     4.05645    1.25122    4.46335
       O     4.74112    0.92775    5.06127
      H1     4.89267    1.66011    5.66857
       H     9.60490    3.75108   10.34791
       O    10.31599    3.80512    9.69600
      H1    10.40288    2.88625    9.37112
       H     5.65808   -1.59912   11.63800
       O     6.51092   -1.80441   11.26657
      H1     7.03180   -0.98863   11.46458
       H     9.44917    1.02479   13.09795
       O    10.31711    1.30711   13.41044
      H1    10.13136    2.24267   13.62998
       H     6.16234   -0.57275    5.17249
       O     6.74668   -0.95170    5.82316
      H1     6.76042   -1.87063    5.54250
       H     5.07060    3.40273   11.16428
       O     5.60881    2.65642   11.39221
      H1     5.12563    2.18814   12.06861
       H     3.59003   -2.01541   11.17612
       O     3.84103   -1.09226   11.25227
      H1     3.06181   -0.67819   11.64561
       H     8.47469    0.06389    9.92891
       O     8.10336    0.79779    9.43950
      H1     7.13208    0.62885    9.48956
       H     9.66071   -3.70510   11.08461
       O     9.33101   -3.00461   11.64246
      H1     8.42730   -2.95740   11.39107
       H     8.76521   -4.17858    8.40888
       O     8.58733   -3.31042    8.01437
      H1     7.66917   -3.11039    8.22797
       H     7.34685    2.96230   11.41662
       O     8.31615    3.01241   11.37529
      H1     8.53498    2.29809   10.75675
       H     4.50654    0.11534   13.31649
       O     5.39678    0.45056   13.37319
      H1     5.55043    0.50884   14.31664
       H     5.47642    1.46410   10.12146
       O     5.29558    0.73284    9.49835
      H1     4.64129    0.16823   10.00061
       H     8.67927   -0.59599    6.22976
       O     9.37106   -0.01233    6.62533
      H1     8.90434    0.32795    7.40753
       H     8.40419   -1.22439   12.77547
       O     8.24909   -0.31559   12.50261
      H1     7.48216   -0.12423   13.01334
       H     7.05948    5.58359   10.81637
       O     6.63331    5.12922   10.06280
      H1     7.36157    5.09048    9.41506
       H     5.91914   -1.82524    9.39438
       O     5.77001   -2.05806    8.47632
      H1     5.74196   -1.20588    8.02005
       H    10.04903    2.87548    5.63937
       O     9.34588    2.36621    5.23678
      H1     9.42028    1.49690    5.73656
       H     9.90280   -1.77386   10.39802
       O    10.08729   -1.43804    9.50598
      H1     9.70568   -2.15400    8.96153
       H     6.50246    3.72972    5.37957
       O     5.79538    3.42520    5.98212
      H1     6.24300    2.88558    6.65179

