60
frame 1 | Written by MDAnalysis XYZWriter (release 2.4.3)
       H    -7.25773   12.09932   10.20958
       O    -7.75213   12.76291   10.70535
      H1    -8.63673   12.57742   10.45258
       H   -11.20210   12.93300   13.82931
       O   -10.56735   13.63557   13.89452
      H1   -10.77678   14.11611   14.69692
       H    -7.51989    9.83399   13.82864
       O    -6.92939   10.13919   14.55120
      H1    -6.78565   11.09316   14.40287
       H   -14.02896   12.47942    9.81489
       O   -13.25083   13.03044    9.76712
      H1   -13.14452   13.20580    8.81307
       H    -9.41217    9.23069   13.45700
       O    -8.74473    8.71299   12.95802
      H1    -8.69330    7.92111   13.47991
       H    -5.65847    9.77583   10.16510
       O    -5.70161   10.72831   10.35802
      H1    -5.27027   11.19688    9.65037
       H    -3.69272   15.90306    9.79839
       O    -4.04433   15.17393   10.31874
      H1    -4.99563   15.33459   10.39613
       H    -9.87813   17.28954    9.34794
       O    -9.92336   16.36344    9.05991
      H1   -10.14723   15.92733    9.89526
       H   -11.51625   12.56068   10.38252
       O   -10.62948   12.38254   10.05071
      H1   -10.65611   12.77404    9.18250
       H   -10.68348   10.14483   10.36073
       O   -10.38474    9.33343    9.97931
      H1   -10.23503    9.52817    9.02008
       H    -7.46378   13.44577   13.73161
       O    -6.85212   12.77048   13.38652
      H1    -7.05311   12.65650   12.44201
       H   -10.09525    9.70755    6.99241
       O    -9.28195    9.50194    7.48444
      H1    -8.61865    9.44092    6.80045
       H    -6.35589   12.69208    7.29816
       O    -6.67733   13.53923    7.65856
      H1    -6.25465   14.20717    7.09940
       H    -9.49417   14.82423    7.35087
       O   -10.02510   14.54100    6.56672
      H1   -10.41348   15.34420    6.22085
       H   -11.52712   15.72531   11.67083
       O   -10.58753   15.52384   11.81781
      H1   -10.57669   14.70972   12.36608
       H    -7.79067   18.00179   12.28815
       O    -8.12615   18.20761   11.43765
      H1    -8.19592   17.35042   10.99635
       H    -9.04090    8.34485   10.26120
       O    -8.59355    7.55586   10.62400
      H1    -8.90112    7.53889   11.52928
       H    -3.98244   13.44151    9.41801
       O    -4.37531   12.77809    8.84575
      H1    -5.21610   13.19757    8.61387
       H    -8.31335   15.60912    9.80500
       O    -7.41202   15.44675   10.08871
      H1    -7.46077   14.52894   10.39925
       H    -7.53562   15.01713   15.62363
       O    -7.65997   14.91181   14.70045
      H1    -8.47140   15.38833   14.51700

