60
frame 2 | Written by MDAnalysis XYZWriter (release 2.4.3)
       H    -1.49717   -0.90388    9.44145
       O    -1.11639   -0.11657    9.01559
      H1    -1.52838    0.68966    9.35044
       H    -0.01883    0.29971    5.36175
       O    -0.00109    0.80630    6.18905
      H1     0.95123    0.82599    6.40844
       H     1.54174    2.50491    8.30670
       O     2.07786    3.28582    8.45900
      H1     1.60297    3.97721    8.00853
       H    -2.32757    0.48633    3.14820
       O    -2.36916    0.46748    4.09174
      H1    -3.27214    0.76569    4.36641
       H    -3.19673   -0.64619    6.48130
       O    -3.99978   -0.71553    6.99831
      H1    -4.52021   -1.39992    6.53401
       H    -0.78042    3.24108    2.93651
       O    -0.47073    3.48870    2.03524
      H1    -1.18024    4.04189    1.68967
       H    -0.62336    4.68897    7.49097
       O    -0.07384    4.49740    6.71787
      H1    -0.65545    3.96504    6.16218
       H     1.05198   -3.17994    8.02765
       O     0.10888   -3.46620    8.10181
      H1     0.12173   -4.25763    7.51953
       H    -5.71088   -1.09358    3.17655
       O    -5.01283   -0.47154    3.41218
      H1    -4.26063   -1.05339    3.63110
       H     2.19537   -1.00356    8.37248
       O     2.48479   -1.89719    8.57277
      H1     3.40777   -1.93632    8.29377
       H    -0.79280    2.24665    5.48116
       O    -1.34849    2.77376    4.89887
      H1    -1.94582    2.07991    4.52836
       H    -0.00572   -1.68000    5.06701
       O     0.72632   -1.35530    4.49439
      H1     1.48367   -1.31969    5.06925
       H     2.49973   -0.36960    6.90862
       O     2.77512   -0.17470    6.02626
      H1     3.20946    0.69451    6.15993
       H     4.34650    3.31347    5.92464
       O     3.84805    2.65296    6.44046
      H1     3.25439    3.20297    6.98959
       H     3.06070    0.22582    3.03682
       O     2.35307   -0.12907    2.48985
      H1     1.61277   -0.25090    3.09648
       H    -2.41673   -0.60891    0.73086
       O    -2.35977    0.30491    1.00599
      H1    -3.27255    0.63136    0.88642
       H     0.32057   -2.49951    3.08641
       O     0.07144   -2.90622    2.24399
      H1     0.83855   -3.49202    2.11712
       H    -1.23308   -0.92015    6.53972
       O    -1.24393   -1.77982    6.07614
      H1    -0.94127   -2.34636    6.80335
       H    -3.56261   -3.07859    4.59665
       O    -2.99620   -2.42632    4.11756
      H1    -2.37059   -2.12118    4.76169
       H     1.88622    0.60737    9.55598
       O     1.49614    0.67498    8.66787
      H1     0.58932    0.38782    8.82335

