60
frame 1 | Written by MDAnalysis XYZWriter (release 2.4.3)
       H     7.18694    8.46828    8.71248
       O     8.07369    8.84381    8.64907
      H1     8.23033    9.29935    9.47263
       H     3.52527   14.00673    7.99786
       O     2.70926   13.67666    7.61957
      H1     2.11424   13.53535    8.36037
       H     3.74564    8.61705   11.41851
       O     3.95955    9.32881   10.82988
      H1     3.13325    9.48401   10.36211
       H     5.76190    6.82926    9.42578
       O     5.47173    7.68702    9.08327
      H1     5.11345    8.15929    9.83801
       H     4.72947   14.99478    9.70443
       O     4.90668   14.48907    8.86461
      H1     5.17248   13.62931    9.19958
       H    -0.89871    9.51582    6.93211
       O    -0.44090   10.26299    7.33961
      H1     0.23039   10.50236    6.69108
       H     1.31547   12.27050    5.61844
       O     1.83729   11.52740    5.27775
      H1     2.12892   11.14171    6.12488
       H     7.08390   10.62359    4.42214
       O     6.27757   11.07908    4.70463
      H1     5.58589   10.67985    4.15482
       H     5.94311    8.13737    7.12907
       O     6.10479    8.26068    6.19412
      H1     6.68780    9.05628    6.15754
       H     4.76890   14.62625    5.30745
       O     5.53913   14.05964    5.54733
      H1     5.74311   13.46286    4.80917
       H    -0.45234    7.84752    8.11830
       O    -0.10466    7.52844    8.94937
      H1     0.72851    8.00064    9.05205
       H     2.81119    7.07723    7.90628
       O     2.88713    7.79475    8.52892
      H1     3.75681    7.61965    8.84895
       H     8.20735   11.42087    6.97989
       O     8.58090   10.56187    6.70925
      H1     8.30813    9.98924    7.42475
       H     1.53202   10.31935    9.00414
       O     1.26947    9.95490    9.88977
      H1     0.40702   10.36719   10.08616
       H     6.88654   13.04084    7.45335
       O     7.82086   13.02704    7.65183
      H1     8.11108   13.73362    7.03916
       H     2.94307   13.02683    2.26336
       O     2.83543   13.15224    3.22746
      H1     2.84693   12.27157    3.60619
       H     0.22719   14.01728    5.56156
       O     0.32666   13.50425    6.37665
      H1     1.11466   13.86699    6.77703
       H     4.66738   11.09824   10.80270
       O     4.83994   12.01842   11.07423
      H1     3.96321   12.29298   11.23966
       H     4.92222   12.53702    6.85937
       O     5.43878   11.81849    7.23560
      H1     5.88198   11.46634    6.44686
       H     2.87206    9.37072    7.49899
       O     2.88011   10.32766    7.52178
      H1     3.78080   10.55839    7.33210

