60
frame 1 | Written by MDAnalysis XYZWriter (release 2.4.3)
       H    10.71158   16.99616   18.63543
       O    10.12565   16.49253   18.04664
      H1    10.17752   17.08395   17.26798
       H     9.71425   18.37280   15.42290
       O     9.77895   17.46425   15.05898
      H1     8.95624   17.00945   15.20409
       H     2.79394   18.32210   13.28954
       O     2.73029   18.38293   12.32649
      H1     2.14485   19.15380   12.19881
       H     9.72335   17.66445   13.29315
       O     9.37837   17.68058   12.40290
      H1    10.17001   17.74428   11.84507
       H     2.14727   15.70457   13.83898
       O     2.77543   15.37095   14.46570
      H1     2.15571   14.92049   15.07221
       H     2.33702   18.49447   15.35753
       O     3.18161   18.03210   15.12234
      H1     3.06618   17.13255   15.44364
       H     0.98593   17.20067   12.74178
       O     0.87247   16.28222   12.57604
      H1    -0.04095   16.07453   12.79133
       H     5.19365   16.84495   11.99416
       O     6.08718   17.20244   12.13154
      H1     6.69603   16.43464   12.04097
       H     4.98511   17.21645   17.13861
       O     5.77517   17.76137   17.07392
      H1     5.57496   18.50204   16.49202
       H     3.46223   16.17099   18.14705
       O     3.75390   15.89172   17.28051
      H1     4.11650   15.02102   17.43582
       H     3.11602   15.44614   11.42792
       O     4.01974   15.69002   11.34145
      H1     4.45867   15.14977   12.02851
       H     9.65581   14.93793   17.62163
       O     9.47340   14.08657   17.18072
      H1     8.65725   13.79475   17.59664
       H     0.45197   18.74555   15.95500
       O     0.65042   18.96095   16.86559
      H1     0.55702   18.14836   17.36763
       H     8.18131   14.59851   12.90790
       O     8.19468   15.19876   12.13974
      H1     8.69243   15.98770   12.43259
       H     6.15649   13.58927   16.07560
       O     6.48700   14.20880   16.75137
      H1     6.80037   14.94236   16.18268
       H     5.59438   13.80897   14.06674
       O     5.43059   14.69488   13.68671
      H1     4.57279   14.89688   14.03202
       H     2.22518   13.94559   17.10827
       O     1.62041   13.69637   16.35692
      H1     0.76989   13.82010   16.77136
       H     6.60965   16.98127   15.38661
       O     7.13482   16.25247   15.07494
      H1     6.56681   15.91927   14.35198
       H     9.61246   14.09807   14.35873
       O     8.80275   13.63312   14.58067
      H1     8.72669   13.76403   15.52008
       H    -0.31463   15.99911   18.79748
       O     0.02803   16.88783   18.68669
      H1     0.91489   16.80551   19.06717

