60
frame 1 | Written by MDAnalysis XYZWriter (release 2.4.3)
       H   -11.33789    3.64111   12.97062
       O   -11.79535    4.48241   12.82438
      H1   -12.50554    4.57490   13.49648
       H    -3.94780    4.43872   14.21134
       O    -4.88694    4.32378   14.16240
      H1    -5.21083    5.12813   14.60117
       H    -7.51989    9.83399   13.82864
       O    -6.92939   10.13919   14.55120
      H1    -6.78565   11.09316   14.40287
       H   -10.21198    9.59566   17.47514
       O    -9.40829    9.86922   16.97066
      H1    -9.56990   10.82933   16.79977
       H    -9.41217    9.23069   13.45700
       O    -8.74473    8.71299   12.95802
      H1    -8.69330    7.92111   13.47991
       H   -10.87878    6.44912    9.64712
       O   -10.12597    5.95758    9.29504
      H1    -9.36907    6.46337    9.59630
       H   -11.79799   11.15957   14.35540
       O   -12.44152   11.85325   14.28169
      H1   -12.81479   11.91012   15.19642
       H    -7.05442    7.75097   10.40085
       O    -6.15651    8.03557   10.18333
      H1    -5.63742    7.47415   10.76955
       H   -10.68348   10.14483   10.36073
       O   -10.38474    9.33343    9.97931
      H1   -10.23503    9.52817    9.02008
       H   -10.14671    9.86763   15.30705
       O   -10.77395    9.79634   14.59486
      H1   -11.44409    9.17868   14.95128
       H    -8.66316    5.50711   13.92962
       O    -8.96644    6.33500   14.31598
      H1    -8.26111    6.52132   14.96466
       H   -12.80118    7.83362    9.00276
       O   -12.44068    7.54798    9.84209
      H1   -11.76011    8.24078   10.04852
       H   -12.33808    6.95731   15.50560
       O   -12.82873    7.75333   15.24982
      H1   -12.77927    7.71129   14.27623
       H    -9.89970    5.43272   15.72573
       O    -9.72258    5.33314   16.68050
      H1    -9.10684    6.05368   16.83968
       H    -3.83110    6.41057   12.24950
       O    -4.74320    6.76812   12.18138
      H1    -5.01039    6.99489   13.08168
       H    -8.48291    8.47450   16.92228
       O    -8.01588    7.65138   16.69942
      H1    -7.69753    7.37160   17.56917
       H   -11.74757    6.23698   12.99801
       O   -11.66437    7.18257   12.77547
      H1   -10.69650    7.36067   12.88209
       H    -5.49567    8.14860   14.74138
       O    -5.25383    7.20844   14.69136
      H1    -4.58416    7.08996   15.35585
       H    -9.04090    8.34485   10.26120
       O    -8.59355    7.55586   10.62400
      H1    -8.90112    7.53889   11.52928
       H    -7.22285    4.23728   12.70777
       O    -7.83000    4.13055   13.45196
      H1    -7.28412    3.81799   14.18607

