60
frame 0 | Written by MDAnalysis XYZWriter (release 2.4.3)
       H    -6.23201  -12.81145  -11.52311
       O    -6.91169  -12.10823  -11.41058
      H1    -6.82073  -11.78075  -10.51355
       H    -1.97259   -9.15011  -14.87294
       O    -2.41716   -8.26797  -14.94609
      H1    -1.65548   -7.69353  -14.83381
       H    -7.37583   -7.47546  -15.50469
       O    -6.82440   -7.85583  -16.20754
      H1    -6.50521   -8.70501  -15.90960
       H    -5.39459   -7.63430  -14.38355
       O    -4.74543   -7.77219  -13.68892
      H1    -3.95341   -7.99941  -14.22622
       H    -0.92398  -11.36468  -13.80255
       O    -1.59341  -10.91249  -14.37783
      H1    -1.66836  -11.49153  -15.16414
       H    -1.93545  -15.17049  -13.92209
       O    -2.28975  -14.81989  -14.77190
      H1    -2.50191  -15.64086  -15.22464
       H    -6.95556  -10.77968  -12.41245
       O    -6.81615  -10.05825  -13.08458
      H1    -5.84315   -9.98360  -13.15789
       H    -7.14241   -9.62190  -19.47547
       O    -7.14847   -8.72080  -19.06450
      H1    -6.73240   -8.85855  -18.20804
       H    -0.07586   -8.47120  -11.92850
       O    -1.00931   -8.47481  -11.57583
      H1    -1.43103   -9.31074  -11.88373
       H    -1.46823  -12.72909  -16.99522
       O    -2.14540  -12.60081  -16.30122
      H1    -2.24348  -13.44262  -15.82394
       H    -6.39583  -11.31584  -16.02925
       O    -6.29429  -10.40765  -15.65741
      H1    -6.80573  -10.44515  -14.86798
       H    -3.23720  -11.46638  -14.14064
       O    -4.14897  -11.78941  -14.16491
      H1    -4.58060  -11.23949  -14.86378
       H    -5.96594   -7.56340  -11.20257
       O    -6.83596   -7.88677  -11.42298
      H1    -6.72639   -8.51646  -12.15639
       H    -8.35091  -13.80140  -13.76707
       O    -7.80554  -14.58501  -13.80336
      H1    -7.52790  -14.56848  -14.73561
       H    -2.81239   -7.46616  -16.53892
       O    -3.18215   -6.87779  -17.19457
      H1    -3.45937   -7.46878  -17.90512
       H    -5.28421  -15.52459  -14.77228
       O    -5.43151  -15.44637  -15.73799
      H1    -5.08062  -14.56347  -15.98248
       H    -4.63589  -14.74715  -12.04027
       O    -4.53233  -13.80665  -11.83841
      H1    -4.36344  -13.33432  -12.70438
       H    -3.78610  -13.11008  -18.91367
       O    -3.79577  -12.19640  -18.58361
      H1    -3.47243  -12.28427  -17.66727
       H    -6.77446  -13.14013  -16.89996
       O    -5.85316  -12.90105  -16.75409
      H1    -5.54033  -12.71200  -17.66910
       H    -3.59303  -11.15355  -12.54476
       O    -3.06040  -10.92626  -11.77213
      H1    -2.54247  -11.70368  -11.52100

