60
frame 2 | Written by MDAnalysis XYZWriter (release 2.4.3)
       H    -3.33346    7.08410  -10.92081
       O    -2.62770    7.14979  -11.56495
      H1    -1.83674    7.11867  -11.00540
       H    -3.32010   10.46422  -11.83546
       O    -3.63981    9.75500  -12.38773
      H1    -3.61822    8.97716  -11.81015
       H     1.24533    6.98936  -13.99094
       O     0.36737    6.75735  -14.38033
      H1     0.13464    7.58723  -14.78441
       H    -5.24655    8.64409  -17.66402
       O    -5.52561    8.39958  -18.57525
      H1    -5.98350    9.23304  -18.79003
       H     0.02819    6.09221  -12.55942
       O    -0.28402    5.64863  -11.75862
      H1    -1.22999    5.52607  -11.82312
       H    -3.01582    5.19103  -15.81799
       O    -2.99814    4.90190  -16.76681
      H1    -2.02853    4.82659  -16.92725
       H     0.04815    5.24399  -16.01723
       O    -0.28115    4.44678  -16.43029
      H1    -0.57069    3.91826  -15.64657
       H    -7.75974    7.22352  -17.92302
       O    -8.21897    7.18138  -17.05976
      H1    -7.50490    7.02496  -16.44798
       H    -5.25832    9.17744  -15.23632
       O    -4.86403    8.61205  -15.91767
      H1    -5.33899    7.79914  -15.74970
       H    -6.51872    7.14982  -11.80197
       O    -6.46924    6.22189  -12.12684
      H1    -6.24745    5.73125  -11.35326
       H    -5.65199    9.93690  -13.13724
       O    -6.27751   10.03897  -13.87013
      H1    -6.59186   10.94174  -13.67434
       H    -6.18338    6.53327  -14.18180
       O    -6.39042    6.40530  -15.09817
      H1    -7.17672    5.82569  -15.05346
       H    -1.66759    7.66279  -15.45759
       O    -1.13265    8.08600  -16.12600
      H1    -1.64369    8.85054  -16.46713
       H    -1.67642   11.02637  -15.26363
       O    -1.66553   11.20962  -14.32786
      H1    -2.41567   10.74165  -13.90200
       H    -3.61202    7.53161  -14.97985
       O    -3.00769    6.90032  -14.55214
      H1    -3.11630    7.06512  -13.61763
       H    -2.24409    9.97181  -18.10593
       O    -1.79062   10.41398  -17.35496
      H1    -0.87354   10.47905  -17.63256
       H    -3.70823    4.25297  -13.06504
       O    -2.79797    4.06538  -12.76581
      H1    -2.49149    3.44319  -13.43070
       H    -5.83594    5.08569  -16.62408
       O    -5.76879    4.14084  -16.52264
      H1    -5.30206    3.99660  -15.71255
       H    -1.33632    6.84304  -19.11963
       O    -0.67416    7.28943  -18.59354
      H1    -1.01855    7.10611  -17.70981
       H    -0.84637    9.98896  -11.72443
       O    -0.46790    9.40266  -12.42279
      H1    -0.62322    9.91705  -13.19743

