60
frame 2 | Written by MDAnalysis XYZWriter (release 2.4.3)
       H   -11.49211    2.69429   11.86139
       O   -11.57973    2.94973   12.75620
      H1   -12.22717    2.33548   13.11143
       H    -5.36548    3.90884   14.82120
       O    -5.84848    4.75275   14.78122
      H1    -6.74830    4.46402   14.45170
       H    -6.16452   -1.09724   14.40255
       O    -6.54929   -1.08125   13.50089
      H1    -7.49745   -1.23394   13.66578
       H    -6.26297    4.62339   10.54711
       O    -6.15417    4.41979   11.50870
      H1    -5.97117    5.27347   11.89036
       H    -8.22015    1.79485   17.06670
       O    -9.11845    1.80935   17.42356
      H1    -9.25694    0.86455   17.53762
       H    -9.49740    0.09079   13.44765
       O    -9.63265   -0.86040   13.47492
      H1    -9.38645   -1.11012   12.57383
       H   -10.69542    4.40306   18.57622
       O   -11.41023    4.48402   17.90108
      H1   -11.01191    4.17568   17.07829
       H   -14.24594    1.85924   14.10240
       O   -13.36786    1.66074   14.38117
      H1   -13.51655    0.86717   14.87264
       H    -8.09132   -1.54164   18.50322
       O    -8.08403   -0.80220   17.89135
      H1    -7.42550   -1.09605   17.25569
       H    -7.95724    1.76851   15.29505
       O    -7.08977    1.89993   15.72383
      H1    -6.45714    1.63628   15.05286
       H   -11.31027    4.73155   12.55600
       O   -10.75878    5.51061   12.65246
      H1   -10.10112    5.25166   13.30540
       H   -13.41889    4.78913   15.17994
       O   -13.84976    4.01128   15.58653
      H1   -13.29742    3.27074   15.20530
       H    -5.86351   -0.22285   10.76527
       O    -5.86151    0.71256   11.06483
      H1    -5.28598    1.15290   10.42878
       H    -5.67110    0.85654   13.35610
       O    -5.09836    1.49035   13.83975
      H1    -4.29103    0.98731   14.05807
       H   -10.64251   -2.17461   14.33116
       O   -11.21034   -2.58233   14.98051
      H1   -11.37989   -3.43620   14.53557
       H    -9.47785    3.23395   16.35468
       O    -9.86239    3.83232   15.71805
      H1    -9.42447    4.66431   15.89212
       H    -8.85511    2.70395   10.79409
       O    -8.67542    1.83157   11.13652
      H1    -7.70911    1.72305   11.09795
       H    -8.91464   -2.07008   16.81785
       O    -8.93115   -2.94759   16.37467
      H1    -9.66719   -2.80682   15.78768
       H    -7.56564    3.90864   12.65051
       O    -8.17241    4.19270   13.35863
      H1    -8.49415    3.34436   13.69780
       H    -9.80074    2.17261   14.48206
       O    -9.11189    1.67468   13.98470
      H1    -9.32452    1.84515   13.04638

