60
frame 2 | Written by MDAnalysis XYZWriter (release 2.4.3)
       H    -3.46983  -15.31715    8.84941
       O    -4.39107  -15.59002    8.85805
      H1    -4.89820  -14.79222    9.13208
       H     2.53546  -15.78583    6.64295
       O     2.84500  -16.67725    6.86522
      H1     2.05543  -17.23761    6.87171
       H    -2.18671  -16.31851    4.78108
       O    -1.49091  -15.86737    4.28670
      H1    -1.75543  -15.89096    3.38398
       H    -5.69463  -14.07387    5.82178
       O    -4.84892  -14.54667    5.93588
      H1    -4.84721  -14.75656    6.89238
       H    -2.50285  -18.56476    8.88738
       O    -1.93022  -17.77910    8.86014
      H1    -2.41151  -17.22915    8.23297
       H     3.65104  -14.36967    6.66553
       O     2.76935  -14.04107    6.42589
      H1     2.55496  -14.41379    5.58636
       H    -0.30589  -18.31458    3.63884
       O     0.48181  -17.72830    3.62929
      H1     0.15907  -16.89500    4.01473
       H    -1.75436  -14.11887    1.56046
       O    -2.09528  -15.02796    1.76417
      H1    -3.05013  -14.84399    1.87150
       H    -0.61809  -11.40006    3.85199
       O    -1.00341  -12.26358    3.55524
      H1    -1.39158  -12.76105    4.29298
       H     0.90209  -13.51744    1.21734
       O     0.66865  -14.04974    1.99251
      H1     0.01972  -13.49645    2.44231
       H    -1.20394  -11.78169    8.22266
       O    -0.67522  -12.36177    7.66683
      H1    -1.29070  -13.05465    7.37996
       H    -3.18215  -13.67084    5.64425
       O    -2.23725  -13.65005    5.53431
      H1    -2.04409  -14.45499    5.08026
       H    -0.93886  -16.13267    0.45335
       O    -0.55266  -16.93745    0.08207
      H1     0.24840  -16.68931   -0.39188
       H     1.61142  -17.29148    1.80314
       O     2.43842  -17.05252    1.38718
      H1     2.15088  -16.86111    0.46448
       H    -2.25196  -11.75790    2.23357
       O    -2.77643  -11.64598    1.44653
      H1    -2.10846  -11.63453    0.76598
       H    -4.72397  -16.07751    4.88314
       O    -4.67079  -16.78103    4.24370
      H1    -5.55409  -17.16340    4.23578
       H    -1.98875  -18.04896    5.94632
       O    -2.79817  -17.52863    6.08781
      H1    -3.31189  -17.71863    5.28181
       H    -5.73499  -15.78474    1.44886
       O    -4.98096  -15.33575    1.84880
      H1    -4.77657  -15.97879    2.57154
       H     3.06745  -15.66606    3.49065
       O     2.47603  -15.12999    4.02144
      H1     1.72679  -14.96202    3.46415
       H    -0.51470  -17.73154    7.93295
       O     0.19833  -17.73040    7.30177
      H1     0.05483  -18.46794    6.69113

