60
frame 1 | Written by MDAnalysis XYZWriter (release 2.4.3)
       H    -3.15647    4.98012  -10.60887
       O    -2.39067    5.39760  -11.03538
      H1    -1.94814    4.66040  -11.46643
       H    -3.72130    6.50152  -11.56164
       O    -4.12332    7.32789  -11.88055
      H1    -4.02920    7.89939  -11.06933
       H     3.95865    2.79830  -13.78272
       O     3.08685    3.06416  -14.01356
      H1     2.97255    3.74941  -13.37903
       H    -1.17541    6.79061  -14.11224
       O    -0.44430    6.15952  -14.12563
      H1    -0.28084    6.02137  -15.07621
       H    -2.33003    4.55822  -15.37634
       O    -1.78420    4.06101  -16.02100
      H1    -1.32717    3.37802  -15.47826
       H     2.55527    3.08140   -8.70638
       O     1.87852    2.37545   -8.63324
      H1     2.14045    1.72141   -9.28498
       H     3.33728    1.64506  -10.80217
       O     2.91747    0.79609  -10.59509
      H1     2.11285    0.82906  -11.15156
       H    -0.50987    0.54529  -12.11520
       O     0.42359    0.37338  -12.05906
      H1     0.55005   -0.02822  -12.92214
       H    -0.21546    1.33458  -14.59739
       O    -1.01429    1.84312  -14.45144
      H1    -0.80375    2.48808  -13.77415
       H    -1.70853    1.55465   -9.87767
       O    -1.16795    1.76181   -9.08870
      H1    -0.53426    2.38800   -9.46225
       H    -3.03789    1.45933  -12.29163
       O    -2.57908    1.17682  -11.46742
      H1    -3.26977    0.69303  -11.00801
       H     1.49654    5.53446  -10.48214
       O     1.73681    6.41933  -10.20858
      H1     1.35406    7.01305  -10.85391
       H    -1.23437    6.06634   -9.66357
       O    -0.79749    6.40443   -8.87205
      H1     0.13853    6.43395   -9.01388
       H    -0.24245    4.42426  -12.85294
       O    -0.75989    3.72217  -12.46619
      H1    -0.28951    3.55310  -11.62294
       H     3.95479    6.06290  -12.43169
       O     3.99749    5.07975  -12.55783
      H1     4.67247    5.05750  -13.22939
       H     0.95833    3.54243   -9.21115
       O     0.26763    3.86843   -9.79611
      H1    -0.23899    4.45712   -9.21877
       H    -1.92765    3.96235   -7.12035
       O    -2.54953    3.68894   -7.79710
      H1    -2.06199    2.95398   -8.19036
       H    -4.82985    3.75695  -12.12516
       O    -4.17616    3.88333  -12.82370
      H1    -4.11082    3.00437  -13.23580
       H     0.08625    7.51868  -12.57807
       O     0.51800    8.07622  -11.87685
      H1     0.97782    8.77655  -12.37673
       H     0.05110    0.36202   -8.72529
       O     0.22806   -0.45596   -8.22965
      H1    -0.61319   -0.68094   -7.78903

