60
frame 2 | Written by MDAnalysis XYZWriter (release 2.4.3)
       H     9.37030   -7.02410  -12.23877
       O     8.47025   -7.14381  -11.95979
      H1     8.20539   -6.38040  -11.44995
       H     9.85666   -8.53467  -10.43143
       O    10.76163   -8.73683  -10.68901
      H1    10.74109   -8.91482  -11.62720
       H     5.56188  -13.21054   -8.34627
       O     6.09108  -12.66615   -8.97300
      H1     6.79083  -13.28244   -9.15738
       H    10.55894  -10.01061  -14.89036
       O     9.83387   -9.39465  -15.00019
      H1     9.96087   -9.15291  -15.92818
       H     7.21864  -13.92456  -12.37775
       O     8.02881  -13.69870  -11.88087
      H1     7.97002  -12.74307  -11.83865
       H     5.98175   -7.45753  -15.96885
       O     5.30376   -6.83994  -15.71279
      H1     5.72481   -6.17165  -15.16087
       H     3.82453  -10.85999  -10.23714
       O     3.29224  -11.66696  -10.08764
      H1     2.53732  -11.31652   -9.65182
       H     8.95515  -12.36596  -15.21219
       O     8.56385  -11.75040  -15.82694
      H1     8.56037  -10.88561  -15.37228
       H     4.20869  -12.85253  -12.41835
       O     4.70971  -13.39744  -11.78942
      H1     4.52708  -13.03413  -10.92646
       H    11.86603   -7.40875  -13.15901
       O    10.95088   -7.73559  -13.26517
      H1    11.03033   -8.32593  -14.03935
       H     5.30386  -11.03912  -14.08994
       O     4.62980  -10.36033  -13.87922
      H1     4.15922  -10.27158  -14.70092
       H     7.59400   -8.02418  -10.14841
       O     8.15985   -8.54492   -9.55801
      H1     7.95003   -9.44866   -9.79849
       H     5.67191  -11.26303  -10.33373
       O     5.54560  -10.35941  -10.66825
      H1     5.87894  -10.38123  -11.55438
       H     3.68169   -8.44428  -12.92132
       O     3.52065   -7.49899  -12.96570
      H1     2.97619   -7.32490  -12.19003
       H    10.43746  -15.47454  -13.83310
       O    10.12670  -15.26145  -12.93599
      H1     9.48411  -14.57428  -12.96836
       H     8.83433  -10.59721  -12.27909
       O     8.00288  -11.02447  -12.18952
      H1     7.49782  -10.72184  -12.93722
       H    11.96861  -10.41841  -13.23288
       O    11.10893  -10.53391  -12.86222
      H1    11.13989  -11.43185  -12.53370
       H     6.81340  -12.16186  -15.11267
       O     6.39425  -12.29696  -14.27207
      H1     5.72907  -12.95370  -14.50818
       H     6.84055   -9.10361  -16.95619
       O     6.13205   -9.40134  -16.36001
      H1     6.44516   -9.27423  -15.43506
       H     8.54026   -8.77328  -14.27666
       O     7.57759   -8.67785  -14.14238
      H1     7.55375   -7.82290  -13.69878

