60
frame 1 | Written by MDAnalysis XYZWriter (release 2.4.3)
       H   -15.16877  -13.16038  -18.14888
       O   -15.17222  -14.00139  -18.58157
      H1   -14.47966  -14.46471  -18.05308
       H   -13.40423  -14.58579  -15.30343
       O   -13.41883  -13.59876  -15.41463
      H1   -12.85339  -13.32848  -14.66135
       H   -10.38104  -17.33030  -18.77045
       O   -10.88319  -16.63744  -18.33680
      H1   -10.15889  -16.11724  -17.92674
       H   -14.84294  -10.92903  -12.41993
       O   -15.64503  -11.37694  -12.11113
      H1   -15.91632  -11.83922  -12.89811
       H   -11.67738  -17.54829  -16.45349
       O   -12.15099  -18.22506  -15.94009
      H1   -13.01090  -17.77981  -15.85307
       H   -18.93071   -6.45750  -18.62153
       O   -18.44247   -7.13458  -18.13435
      H1   -18.68233   -7.97302  -18.57400
       H   -14.16327  -16.59460  -17.45275
       O   -13.52114  -15.87467  -17.44951
      H1   -12.87695  -16.18196  -18.10984
       H   -16.16256  -18.83612  -14.56494
       O   -15.90945  -18.13246  -15.15265
      H1   -15.31797  -17.54987  -14.59115
       H   -15.37058  -18.26555  -16.93829
       O   -15.03885  -18.05431  -17.81927
      H1   -15.78702  -18.16830  -18.39361
       H   -16.38525  -14.63690  -13.11839
       O   -15.83856  -14.71758  -13.91242
      H1   -16.48242  -15.10956  -14.57649
       H   -15.27584  -12.70030  -15.07997
       O   -15.84714  -11.91958  -15.19917
      H1   -16.67730  -12.25617  -14.82731
       H   -16.88464   -8.89187  -15.61013
       O   -16.47834   -8.89777  -16.49940
      H1   -16.13228   -9.80277  -16.60259
       H   -17.89153  -16.27436  -15.79631
       O   -17.89508  -15.31376  -15.70100
      H1   -17.74661  -14.96903  -16.57713
       H   -18.49053  -12.24231  -18.95567
       O   -17.87800  -11.72049  -18.41488
      H1   -18.30811  -11.55523  -17.57826
       H   -18.59772  -12.83989  -13.03508
       O   -18.11574  -12.12305  -13.49648
      H1   -18.51706  -12.12095  -14.37341
       H   -18.31221  -16.19746  -12.14717
       O   -17.67529  -15.49671  -11.97623
      H1   -17.48277  -15.72540  -11.06329
       H   -14.52122  -15.73845  -13.71599
       O   -13.97755  -16.54169  -13.80767
      H1   -13.04529  -16.21916  -13.84458
       H   -16.99956  -14.22668  -18.46480
       O   -17.83627  -14.62671  -18.30370
      H1   -17.87149  -15.39032  -18.88402
       H   -11.72528  -10.99030  -16.26610
       O   -12.09378  -11.11670  -17.16956
      H1   -12.80768  -11.74994  -17.07907
       H   -15.58738  -11.67131  -16.80165
       O   -15.26436  -11.55196  -17.72192
      H1   -16.07264  -11.58429  -18.25679

