60
frame 1 | Written by MDAnalysis XYZWriter (release 2.4.3)
       H     3.55879  -13.15561    1.52762
       O     3.99047  -12.68532    0.79943
      H1     4.70909  -12.22953    1.24535
       H    -0.19721  -11.90120   -2.17821
       O    -0.38796  -11.67640   -1.25899
      H1    -1.06521  -10.96682   -1.35084
       H     7.31841  -15.16207   -0.74279
       O     7.24341  -15.96440   -1.24843
      H1     8.08069  -16.09468   -1.71596
       H     0.97549  -14.67770   -0.48151
       O     0.43434  -14.17076    0.11852
      H1     0.39466  -13.31475   -0.30362
       H     5.90933  -18.23426   -0.20703
       O     5.55431  -18.87644   -0.82925
      H1     6.33129  -19.15082   -1.31549
       H     4.32988  -14.45129   -4.04435
       O     3.68382  -15.16054   -3.92327
      H1     3.36087  -15.04700   -3.01841
       H     7.23101  -12.00872   -1.81021
       O     6.53827  -11.40195   -2.08413
      H1     5.75446  -11.95045   -2.13276
       H     6.11595  -13.66282    0.74686
       O     6.31966  -14.46613    1.18380
      H1     5.68322  -15.06874    0.79201
       H     4.60950  -16.73800   -3.45753
       O     4.87528  -17.62773   -3.61311
      H1     5.18136  -17.90267   -2.72063
       H     2.51045  -14.78633    2.62777
       O     2.18220  -13.88151    2.63747
      H1     1.49740  -13.90165    1.96955
       H    -2.02721  -15.85632   -2.01867
       O    -1.93335  -15.48709   -2.90976
      H1    -2.76915  -15.70161   -3.34830
       H     2.50561  -12.39778   -4.07933
       O     1.56199  -12.55372   -3.96012
      H1     1.55116  -13.48876   -4.07878
       H     4.14728  -12.39706   -1.07355
       O     4.11195  -12.54195   -2.03297
      H1     3.80085  -11.73522   -2.44112
       H    -0.78622  -15.76147   -0.08393
       O    -0.86904  -16.67977   -0.33783
      H1    -0.03770  -16.87330   -0.81141
       H     3.35440  -18.07006   -4.58544
       O     2.39076  -18.01249   -4.71296
      H1     2.09478  -18.91059   -4.82900
       H     3.11156  -16.67082    2.41328
       O     2.64051  -16.55434    1.58539
      H1     1.78947  -16.92076    1.81268
       H     4.34808  -16.89985    0.41384
       O     4.71922  -16.15591   -0.03091
      H1     5.16213  -16.57714   -0.74922
       H     1.94564  -15.83317   -5.04408
       O     1.13407  -15.44228   -5.34508
      H1     0.42726  -16.00554   -5.03859
       H     2.62120  -14.26474   -1.11240
       O     2.60477  -15.20086   -1.48143
      H1     3.14059  -15.67169   -0.82738
       H     1.98315  -18.05954   -2.82874
       O     1.40910  -18.21101   -2.07230
      H1     1.75470  -19.01335   -1.66177

