60
frame 2 | Written by MDAnalysis XYZWriter (release 2.4.3)
       H    -5.80104   14.65108   -0.62396
       O    -5.96350   14.60535    0.32483
      H1    -6.75601   15.14386    0.42855
       H    -4.78584   18.16175    1.83196
       O    -4.72380   17.37636    2.43676
      H1    -4.44068   17.70782    3.28252
       H     0.10983   17.94786    1.28433
       O    -0.78046   18.30247    1.30084
      H1    -0.62461   19.14007    0.87353
       H    -8.09598   16.99496    0.06953
       O    -7.94807   16.38235    0.82937
      H1    -8.59091   16.68017    1.47801
       H    -6.75586   14.94380   -2.55580
       O    -6.01462   14.31272   -2.46468
      H1    -5.26534   14.89512   -2.66816
       H    -5.17307   18.11555   -2.21518
       O    -5.82407   17.82210   -1.60004
      H1    -5.52103   18.31657   -0.82781
       H    -3.05886   13.90532   -4.62343
       O    -3.96567   13.60797   -4.44443
      H1    -3.84918   12.66259   -4.49667
       H     1.08160   18.78985   -2.16796
       O     0.47420   18.22527   -2.63029
      H1    -0.38089   18.34720   -2.20515
       H    -3.47367   15.39637   -0.53022
       O    -3.53031   15.73590   -1.41265
      H1    -4.17216   16.44277   -1.31618
       H    -9.62352   15.54829    0.14292
       O   -10.23269   15.11651   -0.46014
      H1   -10.55788   14.35760    0.07646
       H    -9.23583   17.23561   -2.00466
       O    -8.63137   17.84254   -1.51915
      H1    -7.73463   17.66854   -1.85548
       H    -5.91250   13.56429   -4.83438
       O    -6.36989   14.00468   -5.54788
      H1    -7.01598   14.54988   -5.11332
       H    -8.53465   15.90321   -3.85983
       O    -8.53658   15.67494   -2.91301
      H1    -9.29879   15.11538   -2.83427
       H    -3.54692   16.20531    1.80325
       O    -2.89794   15.78873    1.23384
      H1    -2.26915   15.37518    1.83417
       H    -8.06205   17.39880   -5.72496
       O    -8.11467   16.43706   -5.52140
      H1    -8.96049   16.20107   -5.86350
       H    -5.76036   15.29416   -6.54829
       O    -5.24622   15.81424   -7.19224
      H1    -4.66622   15.14676   -7.54701
       H    -3.23571   18.57529   -3.67055
       O    -3.92882   17.91909   -3.70965
      H1    -3.74073   17.43090   -4.49891
       H    -1.47806   14.18223   -5.52153
       O    -1.53821   14.64542   -4.66217
      H1    -1.66433   15.54489   -4.96853
       H    -3.63329   16.42815   -6.52134
       O    -2.77640   16.72415   -6.25993
      H1    -2.65623   17.55687   -6.74533
       H    -1.52135   17.72602   -0.39836
       O    -1.81857   17.75130   -1.33365
      H1    -2.24321   16.89388   -1.43783

