60
frame 2 | Written by MDAnalysis XYZWriter (release 2.4.3)
       H    18.12959   12.04889   -7.15920
       O    17.76602   12.02547   -8.03094
      H1    18.08029   12.88209   -8.40477
       H    13.21609   12.87240   -8.43465
       O    12.97027   12.18622   -9.05722
      H1    13.54815   11.46471   -8.80902
       H    15.34287   13.47356  -12.58359
       O    15.96279   13.29389  -11.90642
      H1    16.55280   12.63275  -12.32383
       H    11.09291   11.08908   -8.15588
       O    10.70243   11.59737   -7.42925
      H1     9.80023   11.26773   -7.45275
       H    11.31721    8.62654   -7.55512
       O    11.75711    8.06137   -6.92461
      H1    11.00528    7.76641   -6.38102
       H    17.34858   10.60413   -9.03075
       O    17.13818    9.70733   -9.29596
      H1    17.15618    9.26792   -8.45150
       H    14.20814    6.59395   -9.18312
       O    14.16597    6.83826   -8.25385
      H1    13.24826    6.59241   -7.93073
       H    10.72090   13.56694   -8.08629
       O    10.22003   14.14665   -8.68645
      H1     9.62959   13.51958   -9.14810
       H    11.26627   13.73754  -11.48688
       O    10.74163   12.98868  -11.80269
      H1    11.36512   12.25284  -11.88905
       H    14.25609   14.03540   -7.51009
       O    13.48850   14.50542   -7.89160
      H1    13.00593   14.75558   -7.10941
       H    11.58911   10.91661   -6.11430
       O    11.99020   10.99062   -5.23514
      H1    12.96892   10.95939   -5.37062
       H    14.50014   16.04560   -9.05687
       O    15.20691   16.68061   -9.09939
      H1    15.05337   17.12319   -9.95965
       H    15.93271   12.74337   -6.47460
       O    15.93898   13.68558   -6.72970
      H1    16.48213   13.70684   -7.52716
       H    14.08513    8.97929   -8.32623
       O    14.41351    9.88307   -8.19358
      H1    15.25231    9.93607   -8.68021
       H    13.03945   11.64973  -10.75206
       O    13.12148   11.55004  -11.69768
      H1    13.75992   12.23636  -11.94833
       H    15.22688   10.51918   -6.49185
       O    15.51582   10.94895   -5.64885
      H1    15.85587   10.17939   -5.17186
       H    11.45078   14.81250   -9.78087
       O    11.96356   15.25591  -10.47913
      H1    11.92818   16.19067  -10.23164
       H    10.40749   13.02907   -4.39793
       O    10.28579   13.45024   -5.25292
      H1    10.63970   12.79403   -5.83945
       H     9.98247    9.64190   -9.86829
       O    10.82577    9.48149   -9.42175
      H1    11.41166    9.51304  -10.17768
       H    13.95533    8.53842  -11.98072
       O    13.87243    7.85331  -11.29545
      H1    13.20407    7.26346  -11.66505

