60
frame 2 | Written by MDAnalysis XYZWriter (release 2.4.3)
       H     1.52316   -6.43994   12.23744
       O     1.78723   -5.74368   11.56485
      H1     1.32371   -5.98451   10.76474
       H    -1.49717   -0.90388    9.44145
       O    -1.11639   -0.11657    9.01559
      H1    -1.52838    0.68966    9.35044
       H     3.38388   -0.37984   15.43599
       O     3.88135   -1.16715   15.16366
      H1     3.74809   -1.14659   14.17590
       H     5.31477   -1.12280    9.97731
       O     5.94596   -1.30981   10.67744
      H1     5.41604   -1.30385   11.51143
       H     1.05198   -3.17994    8.02765
       O     0.10888   -3.46620    8.10181
      H1     0.12173   -4.25763    7.51953
       H     6.95643   -2.73531   11.40826
       O     7.44206   -3.41764   11.93426
      H1     6.94454   -4.21763   11.83523
       H     3.12476   -1.73729   12.38732
       O     3.68891   -0.98171   12.49212
      H1     3.22863   -0.32570   11.99069
       H     3.54396   -6.64101   11.14330
       O     4.11841   -7.21063   11.64637
      H1     4.37875   -7.91431   11.05357
       H     2.57786   -4.89433    8.66450
       O     3.33945   -4.64296    8.16471
      H1     4.09007   -5.08122    8.58855
       H     0.34105   -6.24313    8.90171
       O     1.28990   -6.20171    9.00445
      H1     1.61589   -7.07445    8.74112
       H     2.19537   -1.00356    8.37248
       O     2.48479   -1.89719    8.57277
      H1     3.40777   -1.93632    8.29377
       H     1.53030   -4.33507   13.27983
       O     0.90115   -3.91006   13.86479
      H1     1.35342   -3.71087   14.66328
       H     3.01467    1.60161   11.29690
       O     2.26799    0.98800   11.24223
      H1     1.54937    1.65164   11.29651
       H    -0.97382   -2.46087   11.22499
       O    -1.35508   -2.43037   10.34220
      H1    -0.61851   -2.69290    9.78653
       H     1.96396   -3.73622   10.95102
       O     2.36639   -2.88956   11.21458
      H1     2.38236   -2.33681   10.44740
       H    -0.54254   -1.04637   13.14896
       O    -0.79006   -1.97557   13.08132
      H1     0.01962   -2.50600   12.99868
       H     1.36319   -2.62516   16.80331
       O     2.09935   -2.96340   16.28396
      H1     2.49243   -2.15030   15.87791
       H     5.10128    0.00091    8.02630
       O     5.06592   -0.95634    8.03475
      H1     5.71422   -1.16575    7.31639
       H    -1.92251   -5.14223   10.32690
       O    -1.31410   -5.43744    9.65070
      H1    -1.17163   -4.67355    9.06967
       H     1.88622    0.60737    9.55598
       O     1.49614    0.67498    8.66787
      H1     0.58932    0.38782    8.82335

