60
frame 1 | Written by MDAnalysis XYZWriter (release 2.4.3)
       H    -2.46889   -4.12451   11.53016
       O    -2.29794   -4.50972   12.40775
      H1    -3.02971   -4.16787   12.95037
       H    -3.38917   -1.02142   11.69911
       O    -3.21132   -0.55759   10.87416
      H1    -3.87434    0.13588   10.76837
       H    -7.37798   -6.64463   13.47275
       O    -7.99342   -6.74067   14.21284
      H1    -8.86348   -6.87694   13.79373
       H    -4.44043   -2.08628   13.99108
       O    -4.36774   -1.27119   13.48126
      H1    -5.30298   -1.10103   13.28938
       H    -7.28861   -2.03390   14.46861
       O    -7.41657   -1.88370   13.52859
      H1    -8.20341   -1.30962   13.46090
       H    -5.51843   -7.27171   12.73113
       O    -6.07245   -6.51916   12.46996
      H1    -6.24026   -6.73228   11.55036
       H    -4.40070   -0.58886   15.41194
       O    -4.34285   -0.19911   16.29950
      H1    -5.22467   -0.38745   16.61847
       H    -5.33022   -7.44999   15.91749
       O    -5.90328   -7.38205   16.69554
      H1    -6.81179   -7.37432   16.32359
       H    -5.22422   -4.00485   11.89069
       O    -5.90193   -3.35582   11.59769
      H1    -6.35295   -3.21217   12.43847
       H    -7.25419   -1.65967   16.98930
       O    -6.84259   -1.18685   16.24297
      H1    -7.15277   -0.30310   16.41734
       H    -0.00993   -4.91763   16.68900
       O    -0.03107   -3.97601   16.46535
      H1     0.13636   -3.99810   15.50656
       H    -2.84650    0.53530   14.38079
       O    -2.95893    1.30518   13.83825
      H1    -2.11989    1.78017   13.93238
       H    -5.53681   -4.90995   17.81029
       O    -6.40040   -4.53386   18.04144
      H1    -7.01323   -5.21401   17.68933
       H     1.14055   -1.24399   13.11483
       O     0.25232   -1.58593   13.08206
      H1     0.35127   -2.49109   13.36253
       H    -0.48447   -0.04562   15.54410
       O    -1.27896   -0.57860   15.46518
      H1    -1.14444   -1.08103   14.62753
       H    -2.60171   -1.73721   16.87709
       O    -2.33559   -2.59705   17.21671
      H1    -1.43145   -2.67316   16.90657
       H    -2.61261   -4.71564   18.14025
       O    -3.40476   -5.23748   18.46004
      H1    -3.01857   -5.77030   19.17228
       H    -1.99939   -8.14416   12.74578
       O    -1.59411   -7.42395   13.25574
      H1    -1.77437   -6.60681   12.76124
       H    -4.22277   -4.64100   14.88743
       O    -3.86741   -3.79767   14.59294
      H1    -3.18736   -3.57545   15.23906
       H    -2.85831   -6.68733   14.66711
       O    -3.52529   -6.80239   15.32381
      H1    -3.17627   -6.34784   16.14636

