60
frame 1 | Written by MDAnalysis XYZWriter (release 2.4.3)
       H     3.83459   -2.13485    1.79387
       O     4.13921   -2.77293    2.45955
      H1     3.88794   -2.36215    3.28936
       H     0.80133   -7.49993   -3.15280
       O     0.85649   -8.41978   -3.42904
      H1     1.19698   -8.35837   -4.34262
       H     4.01090   -2.50557   -0.48218
       O     3.50456   -1.85026   -0.03090
      H1     3.99779   -1.04836   -0.12432
       H     0.04001   -5.06078    1.75061
       O     0.05942   -5.45833    2.62661
      H1     0.96198   -5.32507    2.96733
       H     0.67669   -5.30077   -5.06652
       O    -0.01410   -5.86339   -4.70392
      H1    -0.57198   -6.13465   -5.42666
       H     4.39149   -1.77467   -4.14149
       O     3.61754   -1.21465   -4.05236
      H1     3.22781   -1.12060   -4.91634
       H     4.61288   -4.32401   -2.09251
       O     5.04548   -4.20718   -1.22411
      H1     5.94484   -3.85608   -1.46307
       H     1.31087   -5.23247   -1.73170
       O     1.60012   -6.12157   -1.84919
      H1     1.68712   -6.45397   -0.93300
       H    -1.05506   -1.31607   -3.80875
       O    -0.92501   -1.64915   -4.72852
      H1    -0.00034   -1.38909   -4.98748
       H    -1.53512   -0.55162   -1.73763
       O    -0.79520   -0.32543   -2.30935
      H1    -0.05194   -0.69603   -1.80007
       H    -3.53369   -3.70669   -1.77315
       O    -3.46874   -4.48103   -1.18796
      H1    -4.31021   -4.91878   -1.27066
       H     0.41507   -3.27280    0.80374
       O     1.09115   -3.96772    0.73488
      H1     1.87050   -3.61270    1.16316
       H    -1.83862   -1.69441    0.68984
       O    -1.67792   -0.79892    0.38537
      H1    -2.60791   -0.45117    0.30247
       H    -1.04655   -6.09921   -3.22035
       O    -1.70251   -6.43706   -2.59909
      H1    -1.85978   -5.63686   -2.07365
       H     1.26180   -8.08703    0.04048
       O     1.51533   -7.38946    0.66676
      H1     0.67081   -7.09296    0.99208
       H    -2.57734   -3.51141    1.58993
       O    -2.12136   -3.48949    0.76625
      H1    -2.73849   -4.05718    0.20994
       H     3.94259   -5.88294   -3.28513
       O     4.06908   -5.07659   -3.77856
      H1     4.99666   -4.98599   -3.97969
       H     1.12383   -2.61753   -2.25098
       O     0.90571   -3.53944   -2.11681
      H1     1.04432   -3.61709   -1.18424
       H     1.48717   -3.47262   -5.63197
       O     1.90689   -4.32844   -5.59072
      H1     2.67561   -4.15439   -5.06916
       H     2.45674   -1.15688   -2.69677
       O     1.79205   -0.84845   -2.05084
      H1     2.21566   -0.96917   -1.19718

