60
frame 2 | Written by MDAnalysis XYZWriter (release 2.4.3)
       H     3.74241  -13.25828   13.87574
       O     4.40704  -12.61012   14.19002
      H1     5.18119  -13.11444   14.44833
       H     1.68343  -14.44687   14.22175
       O     2.38450  -14.30735   13.57763
      H1     1.84293  -13.73664   13.03250
       H     5.72867  -12.12470   18.57180
       O     5.78549  -12.99157   18.09970
      H1     6.33876  -12.73878   17.34302
       H     0.31530  -18.43508   17.66985
       O    -0.33369  -18.42593   18.39500
      H1    -0.39152  -19.31563   18.72779
       H     7.37004  -15.80478   13.90233
       O     7.99044  -15.16013   13.54884
      H1     7.43456  -14.38601   13.31822
       H    -0.67638  -14.98612   14.92173
       O    -0.05380  -14.28153   15.11065
      H1    -0.02819  -14.23783   16.07224
       H     7.11862  -17.84507   15.26781
       O     6.56806  -17.03857   15.25016
      H1     6.79351  -16.54477   16.05348
       H     3.08010  -11.88055   16.63573
       O     2.89637  -10.93019   16.63686
      H1     3.76769  -10.55575   16.77789
       H     9.94209  -17.46219   16.32026
       O     9.07184  -17.65751   16.72125
      H1     9.33652  -18.29348   17.39929
       H     4.01431  -18.24560   13.66530
       O     4.41516  -17.36210   13.53638
      H1     5.20939  -17.41455   14.11474
       H     7.52023  -13.45821   15.45495
       O     6.69828  -12.93257   15.50227
      H1     6.75159  -12.20913   14.87574
       H     4.72509  -16.99219   11.80364
       O     4.96297  -17.22211   10.88011
      H1     4.54028  -18.06926   10.73483
       H     9.61255  -14.53567   18.66174
       O    10.24161  -13.85467   18.46289
      H1    10.74880  -13.79618   19.27296
       H     1.13504  -18.43724   15.62647
       O     1.65612  -18.31893   16.45339
      H1     2.23012  -17.53946   16.24724
       H     8.93097  -14.42375   14.84992
       O     9.41248  -13.91995   15.50694
      H1     9.12157  -14.29301   16.34587
       H     0.13993  -12.82933   17.92166
       O    -0.01391  -13.79116   17.73518
      H1    -0.78025  -14.00018   18.33160
       H     8.37564  -16.07529   17.16085
       O     7.98951  -15.17701   17.26437
      H1     7.26990  -15.31252   17.87794
       H     3.74701  -15.48616   16.38179
       O     3.85226  -16.39930   16.07006
      H1     3.96963  -16.31124   15.10653
       H     4.36267  -13.34868   17.40091
       O     3.52863  -13.72723   17.08727
      H1     3.10423  -13.94433   17.91611
       H     5.22399  -16.99831   18.90699
       O     5.71133  -17.18998   18.09456
      H1     5.03998  -17.04468   17.41102

