60
frame 1 | Written by MDAnalysis XYZWriter (release 2.4.3)
       H    -7.37798   -6.64463   13.47275
       O    -7.99342   -6.74067   14.21284
      H1    -8.86348   -6.87694   13.79373
       H    -7.28861   -2.03390   14.46861
       O    -7.41657   -1.88370   13.52859
      H1    -8.20341   -1.30962   13.46090
       H    -8.97840   -5.77240   18.70602
       O    -8.79228   -5.82043   17.75497
      H1    -8.71008   -6.75732   17.63582
       H   -11.60012   -8.77090   15.38018
       O   -11.96665   -7.93063   15.06349
      H1   -11.51414   -7.22628   15.57131
       H    -5.33022   -7.44999   15.91749
       O    -5.90328   -7.38205   16.69554
      H1    -6.81179   -7.37432   16.32359
       H    -8.77852  -12.19044   17.07102
       O    -8.73534  -11.77031   16.21737
      H1    -8.59138  -10.82754   16.39165
       H   -12.04027   -9.79729   17.58953
       O   -11.50833   -9.56956   18.35002
      H1   -11.78688  -10.23802   18.97714
       H    -4.90469   -8.12837   18.18427
       O    -4.83697   -8.78038   18.89005
      H1    -3.91356   -9.11979   18.79476
       H    -9.27073   -4.73529   13.99222
       O    -9.66688   -4.52169   14.82539
      H1    -9.31341   -5.20123   15.42306
       H   -11.69998   -6.51672   18.02884
       O   -11.32010   -6.09294   17.27583
      H1   -10.37310   -6.00933   17.52343
       H    -7.25419   -1.65967   16.98930
       O    -6.84259   -1.18685   16.24297
      H1    -7.15277   -0.30310   16.41734
       H    -5.53681   -4.90995   17.81029
       O    -6.40040   -4.53386   18.04144
      H1    -7.01323   -5.21401   17.68933
       H   -10.72595   -1.52032   15.56793
       O   -10.79965   -1.96806   16.38562
      H1   -11.20677   -2.83904   16.19539
       H   -12.04704   -4.60909   14.02615
       O   -12.22557   -4.74983   13.09500
      H1   -13.08768   -4.39977   12.95853
       H   -10.86579   -7.18408   13.65056
       O   -10.35505   -6.72168   12.96409
      H1   -10.84014   -5.91345   12.81120
       H    -2.61261   -4.71564   18.14025
       O    -3.40476   -5.23748   18.46004
      H1    -3.01857   -5.77030   19.17228
       H   -13.52614   -4.32086   15.89591
       O   -12.56841   -4.19013   15.83644
      H1   -12.23430   -4.73310   16.56112
       H    -8.46918   -3.10042   18.50069
       O    -8.77603   -2.22359   18.24308
      H1    -9.42239   -2.43819   17.56416
       H    -6.68016   -9.49023   15.26953
       O    -7.18781   -9.23104   14.50055
      H1    -7.48574   -8.35474   14.72678
       H    -8.37457   -8.97190   18.55897
       O    -8.89017   -9.12210   17.74072
      H1    -9.70149   -9.48477   18.06645

