60
frame 1 | Written by MDAnalysis XYZWriter (release 2.4.3)
       H    -0.46736   -2.77258  -14.34171
       O    -0.42300   -1.92394  -13.90778
      H1    -0.60644   -2.10021  -12.94510
       H     4.37621   -0.53394  -16.02360
       O     3.87348   -0.22260  -15.23208
      H1     3.02141    0.09260  -15.58860
       H     3.95865    2.79830  -13.78272
       O     3.08685    3.06416  -14.01356
      H1     2.97255    3.74941  -13.37903
       H    -3.33066   -1.83477  -14.72200
       O    -2.95941   -1.01635  -14.39680
      H1    -2.06999   -1.21555  -14.07578
       H     0.84270   -0.37023  -15.94756
       O     1.17848    0.37806  -15.41812
      H1     1.14518    1.12571  -16.06139
       H     4.91948   -0.73379  -12.13724
       O     5.72506   -0.34677  -11.71787
      H1     5.67545   -0.57211  -10.78475
       H     2.55527    3.08140   -8.70638
       O     1.87852    2.37545   -8.63324
      H1     2.14045    1.72141   -9.28498
       H    -4.87585    0.92101  -13.60005
       O    -4.09296    1.45147  -13.88106
      H1    -3.52165    0.78303  -14.26210
       H     3.33728    1.64506  -10.80217
       O     2.91747    0.79609  -10.59509
      H1     2.11285    0.82906  -11.15156
       H    -0.50987    0.54529  -12.11520
       O     0.42359    0.37338  -12.05906
      H1     0.55005   -0.02822  -12.92214
       H    -0.21546    1.33458  -14.59739
       O    -1.01429    1.84312  -14.45144
      H1    -0.80375    2.48808  -13.77415
       H     1.83884   -1.58746   -8.42115
       O     2.31109   -2.27300   -8.91406
      H1     1.93828   -2.17150   -9.81518
       H    -1.12943   -3.67685  -10.65340
       O    -1.35764   -3.10333  -11.42051
      H1    -2.16828   -3.46111  -11.81738
       H     3.94449   -2.67764  -12.76954
       O     3.69141   -1.74613  -12.89675
      H1     3.49178   -1.68035  -13.84464
       H    -1.70853    1.55465   -9.87767
       O    -1.16795    1.76181   -9.08870
      H1    -0.53426    2.38800   -9.46225
       H     1.99467   -2.33626  -11.93416
       O     1.46821   -2.92388  -11.41148
      H1     0.57153   -2.54194  -11.36603
       H    -3.03789    1.45933  -12.29163
       O    -2.57908    1.17682  -11.46742
      H1    -3.26977    0.69303  -11.00801
       H    -0.24245    4.42426  -12.85294
       O    -0.75989    3.72217  -12.46619
      H1    -0.28951    3.55310  -11.62294
       H    -1.33259   -0.02190  -16.02277
       O    -1.41831   -0.12651  -16.94443
      H1    -1.67299    0.79218  -17.19329
       H     0.05110    0.36202   -8.72529
       O     0.22806   -0.45596   -8.22965
      H1    -0.61319   -0.68094   -7.78903

