60
frame 1 | Written by MDAnalysis XYZWriter (release 2.4.3)
       H     7.47944    4.31828   17.52840
       O     6.69546    4.66053   17.04357
      H1     6.14296    5.14811   17.66904
       H     6.38250   -1.21390   17.16217
       O     6.54213   -0.63735   16.41145
      H1     6.81727   -1.20663   15.67467
       H     4.85751    6.51360   14.28983
       O     4.21563    5.81638   14.29838
      H1     4.77165    5.02392   14.19074
       H     4.81506   -0.06641   16.36451
       O     3.87749   -0.06765   16.10583
      H1     3.41018    0.15175   16.95395
       H     5.15157    8.15244   15.72089
       O     5.72134    8.08121   14.94416
      H1     6.55007    8.45605   15.23059
       H     1.87204    3.68551   17.94401
       O     0.98368    3.67479   17.56840
      H1     0.38321    3.87610   18.30179
       H     5.76738    3.19072   17.56200
       O     5.24802    2.49012   17.97834
      H1     4.70125    2.09881   17.24664
       H     9.92746    9.00663   15.00719
       O     9.51234    9.22229   15.85548
      H1     9.22232    8.37444   16.19791
       H    11.38702    5.85441   14.75225
       O    10.59256    5.87389   14.21742
      H1    10.71116    6.72951   13.77279
       H     2.63535    7.84578   16.09781
       O     2.58536    6.90648   16.09101
      H1     3.07853    6.63347   15.30350
       H     4.50654    0.11534   13.31649
       O     5.39678    0.45056   13.37319
      H1     5.55043    0.50884   14.31664
       H     1.09990    6.69503   18.38597
       O     1.60398    6.20144   18.99949
      H1     2.27118    5.75481   18.48445
       H     4.01821    3.14612   14.27057
       O     3.24124    2.81865   13.79452
      H1     2.73931    3.64417   13.73463
       H     6.54803    3.57495   13.87235
       O     5.93440    3.56040   14.62596
      H1     6.42018    4.13874   15.21355
       H     8.02065    6.37905   16.52353
       O     8.40357    7.04645   17.15994
      H1     9.12996    6.60025   17.57988
       H     9.40306    4.46372   14.90823
       O     8.73709    3.86812   15.29097
      H1     8.79836    4.01594   16.23356
       H     5.06855    9.11990   18.05235
       O     4.59044    8.75450   17.30729
      H1     4.52908    7.78869   17.48641
       H    10.32123    3.85862   17.69801
       O     9.39998    3.72245   17.92195
      H1     9.32995    2.76832   17.66422
       H    11.35690    7.21945   18.44729
       O    10.92270    6.42544   18.16347
      H1    10.62211    6.01434   18.98744
       H     6.98412    1.59771   18.33406
       O     7.80652    1.43219   17.83490
      H1     7.52169    0.81202   17.13393

