60
frame 1 | Written by MDAnalysis XYZWriter (release 2.4.3)
       H   -13.94267   -6.69585    8.97763
       O   -13.96046   -5.76481    8.93038
      H1   -13.89315   -5.55382    8.00219
       H   -15.49204   -2.53281    5.53392
       O   -15.68756   -1.99624    4.78141
      H1   -15.14653   -1.19496    4.88665
       H   -13.77779   -5.03027    0.81550
       O   -14.08315   -4.17480    0.52933
      H1   -14.52048   -3.81953    1.34465
       H   -12.56985   -5.15055    2.71952
       O   -13.09032   -4.97958    3.54128
      H1   -14.02391   -5.03485    3.27145
       H   -17.94983   -4.33390    3.97593
       O   -18.77183   -4.43399    4.50696
      H1   -19.42303   -3.90545    4.02159
       H   -10.93758   -6.91637    8.05214
       O   -10.46639   -6.69997    7.23640
      H1   -11.10300   -6.92918    6.54579
       H   -14.50937   -7.30632    0.27934
       O   -13.80074   -6.80481    0.65583
      H1   -13.82110   -7.10512    1.56333
       H   -17.02564   -7.41657    1.80835
       O   -17.80607   -6.87955    1.94972
      H1   -18.33731   -7.28058    2.64615
       H   -14.11310   -8.63924    6.75658
       O   -13.97031   -9.53748    7.09693
      H1   -14.82006   -9.94604    7.04126
       H   -12.38206   -6.27128    4.53015
       O   -12.32099   -7.08190    5.04160
      H1   -11.73785   -7.66479    4.56144
       H   -15.58238   -7.79175    5.55264
       O   -15.08684   -7.00417    5.81574
      H1   -14.63043   -6.78029    4.99176
       H   -13.68814   -7.70540    3.98008
       O   -14.39355   -7.87512    3.34372
      H1   -14.40852   -8.84815    3.30361
       H   -17.34823   -9.64901    7.39117
       O   -17.07475  -10.34349    7.99998
      H1   -17.74142  -11.01732    7.85345
       H   -13.88225   -8.93538    9.03131
       O   -14.17895   -8.33872    9.74390
      H1   -13.57095   -8.47866   10.47603
       H   -11.55442  -10.07192    4.61293
       O   -11.17091   -9.27692    4.20842
      H1   -10.24140   -9.48518    4.27842
       H   -14.58120  -11.58004    3.00824
       O   -14.23016  -10.72890    3.21671
      H1   -13.40411  -10.92065    3.67735
       H   -17.19788   -9.80528    4.93264
       O   -17.21924   -8.93935    5.38477
      H1   -17.95503   -8.50804    4.94731
       H   -11.88316  -12.04477    5.55779
       O   -12.42432  -11.40585    5.12466
      H1   -13.00904  -11.10180    5.84768
       H   -16.74355   -5.64564    3.29095
       O   -16.05073   -4.99555    3.53900
      H1   -16.07410   -4.98059    4.51313
       H   -15.66028   -5.31776    6.63066
       O   -15.70407   -4.40281    6.41738
      H1   -16.00381   -4.01731    7.23558

