60
frame 0 | Written by MDAnalysis XYZWriter (release 2.4.3)
       H    10.89856   -5.39502   12.89945
       O    10.72785   -4.96364   13.73938
      H1    11.56591   -4.92898   14.16785
       H     7.77223   -2.15752   13.85457
       O     7.00128   -2.65340   14.09936
      H1     7.32690   -3.20569   14.81718
       H     7.39764   -3.66380   12.73247
       O     7.87806   -4.24472   12.14947
      H1     8.59319   -3.65668   11.84018
       H    10.63625   -6.52861   10.34050
       O    10.62787   -6.76078   11.30967
      H1     9.74057   -7.12854   11.47682
       H     6.95024   -6.30640   13.30061
       O     7.13171   -7.27232   13.17259
      H1     7.14714   -7.41218   12.21919
       H     4.57932   -2.01694   12.42118
       O     5.34688   -1.59756   11.99119
      H1     5.74317   -1.05461   12.67649
       H     4.21269   -5.65617   10.24643
       O     4.37703   -4.83221   10.64620
      H1     5.25576   -4.57104   10.31954
       H    12.03455   -1.34192   10.68688
       O    11.57190   -0.54312   10.41080
      H1    11.62780    0.05029   11.16837
       H     9.12786   -2.45130    9.69036
       O     9.57656   -2.77437   10.47925
      H1    10.09973   -2.02623   10.77998
       H     4.62807   -5.96121   13.59736
       O     5.22450   -5.43650   14.15554
      H1     4.99315   -4.55110   13.89748
       H     9.35864   -1.73866   16.81013
       O     9.58679   -1.06005   16.17293
      H1     9.75456   -1.58680   15.35543
       H     7.52087   -7.02907    9.93211
       O     7.66469   -7.71149   10.58582
      H1     7.36826   -8.49322   10.15331
       H    11.54865   -3.57733   10.31783
       O    12.45252   -3.22693   10.39083
      H1    12.96876   -3.99902   10.65322
       H     7.20847   -5.74626    7.46236
       O     7.86883   -5.67045    8.17789
      H1     7.55949   -4.90633    8.69056
       H    12.82443   -2.76499   13.81388
       O    12.58503   -2.10001   13.17437
      H1    12.67546   -2.48367   12.26590
       H     8.04822    0.65815   13.27131
       O     7.62781    0.34531   12.49502
      H1     7.95532    0.95065   11.77315
       H     7.25331   -3.56367   10.67321
       O     6.72100   -3.17066    9.97172
      H1     6.20848   -2.46523   10.41527
       H     8.08461   -5.32848   15.86829
       O     8.25833   -4.57251   15.30604
      H1     8.76376   -4.99300   14.59826
       H     9.94913   -3.33524   13.90030
       O     9.96967   -2.35914   13.89911
      H1    10.79710   -2.08574   13.50364
       H    10.47064   -6.96512    8.19708
       O    10.47462   -6.08784    8.58311
      H1     9.54910   -5.84495    8.53693

