60
frame 1 | Written by MDAnalysis XYZWriter (release 2.4.3)
       H    13.26896  -18.28853    0.86452
       O    13.65461  -17.76313    0.13090
      H1    13.30145  -18.16821   -0.66241
       H    14.83403  -16.67952    0.54805
       O    15.24326  -15.81130    0.69622
      H1    16.08582  -15.83833    0.18369
       H    16.64956  -13.67980    4.83451
       O    16.18484  -14.27965    5.42917
      H1    15.40149  -13.73385    5.67297
       H    11.07982  -17.25412    0.95709
       O    10.24545  -17.50879    0.54162
      H1    10.31536  -17.04298   -0.30524
       H    13.41307  -14.03809    5.64494
       O    13.92235  -13.71095    6.42940
      H1    14.01844  -14.54179    6.91287
       H    16.94033  -14.25100    7.09703
       O    17.38782  -14.05920    7.91922
      H1    18.11297  -13.43798    7.66771
       H    17.25282  -17.01196    9.05655
       O    17.01185  -16.85780    8.12366
      H1    17.33655  -15.99219    7.88696
       H    13.50398  -15.73777   -1.95287
       O    13.55999  -14.95379   -1.41616
      H1    14.20033  -15.23823   -0.72778
       H    13.60046  -17.58229    8.97029
       O    13.26514  -18.47375    9.15049
      H1    14.03941  -19.00706    9.01561
       H    14.98488  -18.51707    6.31605
       O    15.58882  -18.87222    6.96434
      H1    16.15291  -18.11674    7.17762
       H    11.16553  -15.80805    5.37751
       O    11.47555  -16.67604    5.02692
      H1    10.84122  -17.34286    5.32690
       H    13.29063  -17.12395    4.57576
       O    13.99008  -17.75500    4.73180
      H1    14.73491  -17.47170    4.17197
       H    18.58492  -14.81285    4.77460
       O    18.51517  -13.94242    4.29906
      H1    19.26349  -13.46727    4.68552
       H    13.71673  -16.70960    6.82497
       O    14.19886  -16.28455    7.51204
      H1    15.12600  -16.49480    7.31281
       H    13.64368  -13.37959    3.35995
       O    12.93410  -13.95982    3.71513
      H1    12.99518  -14.74473    3.17308
       H    11.81977  -16.48188    3.26134
       O    12.28356  -16.27526    2.42306
      H1    13.07839  -16.86075    2.34626
       H    18.11944  -16.76117    3.02748
       O    18.94313  -17.13218    2.65401
      H1    18.69896  -17.69301    1.90268
       H    15.87519  -16.23672    2.62050
       O    16.12795  -16.50039    3.49178
      H1    16.09728  -15.67385    3.99337
       H    19.03226  -16.69679    6.22716
       O    18.70770  -16.39995    5.35217
      H1    19.03758  -17.08269    4.74763
       H     9.59622  -18.64512    5.01778
       O    10.30933  -18.82774    5.68608
      H1     9.86080  -19.13231    6.47861

