60
frame 2 | Written by MDAnalysis XYZWriter (release 2.4.3)
       H   -12.32230    6.76006  -17.19101
       O   -12.66734    7.62328  -17.38325
      H1   -13.39990    7.69025  -16.78107
       H   -12.66807    2.58516  -17.84001
       O   -13.00312    2.42063  -18.75389
      H1   -12.53370    3.12717  -19.18730
       H   -11.85881    8.67786  -16.07730
       O   -11.42482    9.01942  -15.29460
      H1   -11.71683    8.44495  -14.57473
       H   -15.39657    8.82804  -10.57033
       O   -15.66210    8.99381  -11.50607
      H1   -15.04254    9.60081  -11.93311
       H   -14.89456    5.75003  -12.95487
       O   -14.99912    6.63761  -13.27428
      H1   -15.07608    7.20065  -12.49318
       H   -15.76738    1.22750  -15.59039
       O   -15.85580    1.55500  -14.68028
      H1   -15.67090    2.48206  -14.79879
       H   -14.50476    9.11777  -15.82666
       O   -14.65985    8.17432  -15.70768
      H1   -14.40419    8.01098  -14.79863
       H   -11.52918   10.39998  -17.39538
       O   -12.19374   11.05779  -17.51268
      H1   -12.56168   11.15859  -16.62660
       H   -12.92764    7.33387  -12.49937
       O   -12.21657    7.36079  -13.16004
      H1   -11.50293    6.85859  -12.70824
       H   -14.40372   11.89095  -15.75468
       O   -14.59044   11.01700  -16.01753
      H1   -15.40547   11.07487  -16.55741
       H   -17.28476    7.07913  -12.95454
       O   -18.25454    6.93542  -12.91795
      H1   -18.64863    7.70169  -12.49929
       H   -17.35504   10.26246  -17.69429
       O   -17.21045   11.07970  -17.21072
      H1   -17.48495   10.90324  -16.27515
       H   -17.33543    7.99016  -18.54548
       O   -17.63619    8.86069  -18.89976
      H1   -16.87765    9.25126  -19.37799
       H   -14.28796    3.31955  -17.72390
       O   -14.96067    3.52219  -17.07524
      H1   -15.75502    3.09029  -17.41977
       H   -18.79029    6.23410  -14.61438
       O   -18.62331    5.59321  -15.30816
      H1   -17.74994    5.20084  -15.08325
       H   -15.73170    4.24550  -15.53303
       O   -16.31399    4.16446  -14.75296
      H1   -15.85979    4.64463  -14.06050
       H   -14.20045    3.67322  -12.22296
       O   -15.05612    4.10313  -12.28856
      H1   -15.69120    3.38974  -12.20508
       H   -17.22421    2.98991  -18.64866
       O   -17.25899    2.52308  -17.81022
      H1   -17.93783    3.00364  -17.31160
       H   -17.37835   10.69481  -13.90709
       O   -17.88392   11.13590  -14.60191
      H1   -18.73709   10.67667  -14.70697
       H   -15.94945    7.00243  -16.61650
       O   -16.55270    6.76127  -17.33640
      H1   -17.22366    6.24265  -16.88706

