60
frame 1 | Written by MDAnalysis XYZWriter (release 2.4.3)
       H   -13.10760   13.03538   -4.48663
       O   -13.95220   12.64421   -4.29323
      H1   -13.96493   12.52284   -3.32328
       H   -18.03905   11.94370   -4.65015
       O   -18.52437   11.91951   -3.81469
      H1   -19.10741   12.71739   -3.87029
       H   -13.93397   18.68252   -2.28821
       O   -14.24768   17.80045   -2.03323
      H1   -13.50924   17.46947   -1.49057
       H   -16.54064   15.22841   -7.41001
       O   -16.71970   15.02020   -8.33832
      H1   -15.98791   14.44436   -8.52208
       H   -14.63587   11.14588   -5.00149
       O   -15.11979   10.44332   -5.45646
      H1   -15.89191   10.86840   -5.87084
       H   -13.59330   17.04305   -6.30723
       O   -13.49776   17.95915   -6.58324
      H1   -13.51781   17.86867   -7.53982
       H   -16.04069   10.01569   -2.06573
       O   -15.57901   10.45455   -1.31857
      H1   -14.83356   10.87933   -1.77478
       H   -16.64742   13.07437   -5.71718
       O   -17.13061   12.35669   -6.14882
      H1   -17.34157   12.61717   -7.05095
       H   -12.74605   11.46496   -2.07603
       O   -13.49247   12.00605   -1.78521
      H1   -13.06338   12.57452   -1.16412
       H   -13.99925   14.98310   -1.36040
       O   -13.10086   14.79980   -1.00977
      H1   -13.23024   14.58945   -0.08617
       H   -17.11691    8.51881   -4.07300
       O   -16.59469    9.25527   -3.70165
      H1   -16.00928    9.50695   -4.40583
       H   -16.98851   18.24947   -3.05798
       O   -17.08617   19.10605   -3.47975
      H1   -16.59645   19.01946   -4.27780
       H   -18.78265   17.36723   -6.31933
       O   -17.86902   17.24294   -6.02474
      H1   -17.41861   17.98454   -6.44776
       H   -17.31047   16.68143   -8.69455
       O   -17.58285   17.53863   -9.09545
      H1   -18.39764   17.75362   -8.60192
       H   -15.74928   14.94147   -5.31435
       O   -15.12650   15.24221   -5.99215
      H1   -14.51383   14.50923   -6.08562
       H   -15.58965   14.04428   -1.96021
       O   -15.49366   14.97144   -2.24178
      H1   -16.14907   15.44410   -1.71586
       H   -17.30178   12.71297   -2.62005
       O   -16.86861   12.79366   -1.77556
      H1   -16.49346   11.92618   -1.67629
       H   -17.54913   15.70816   -4.46712
       O   -17.31725   14.83729   -4.16997
      H1   -16.60019   14.95676   -3.50737
       H   -13.57568   16.48455   -3.58359
       O   -13.04602   15.90269   -4.11942
      H1   -13.62905   15.59159   -4.82063
       H   -18.31971   16.57800   -1.60912
       O   -17.37892   16.69011   -1.49474
      H1   -17.26838   16.76602   -0.54665

