60
frame 1 | Written by MDAnalysis XYZWriter (release 2.4.3)
       H    13.07853  -17.84946   17.60269
       O    12.58432  -17.04709   17.78192
      H1    12.99663  -16.67853   18.59307
       H    17.17608  -13.52951   16.63223
       O    16.39317  -13.97321   16.34945
      H1    16.00361  -13.42363   15.67257
       H    16.33549  -13.70228   18.40830
       O    16.21640  -13.80724   19.34706
      H1    15.27482  -14.01882   19.38622
       H    18.55349  -16.55709   16.52822
       O    18.64328  -16.16337   17.41423
      H1    17.80655  -16.36427   17.86633
       H    19.43333  -10.13367   18.53537
       O    18.90800   -9.33591   18.30108
      H1    18.03811   -9.69732   18.30908
       H    15.58819  -10.97468   15.33583
       O    16.51498  -10.68211   15.27231
      H1    16.80427  -11.18386   14.49368
       H    13.66014  -17.66740   15.12988
       O    12.76044  -17.96007   15.09026
      H1    12.34090  -17.23956   14.57015
       H    15.57578  -16.06386   15.17438
       O    15.23944  -16.98016   15.25970
      H1    15.42657  -17.11180   16.20153
       H    13.96518  -13.91699   15.40113
       O    14.30701  -13.73028   14.51058
      H1    13.70248  -14.19431   13.90248
       H     9.82033  -17.44467   16.77451
       O    10.12280  -17.92416   15.97331
      H1    11.07817  -17.81492   15.94680
       H    17.24748  -14.95693   13.48049
       O    17.63713  -15.17633   14.31384
      H1    17.09374  -14.64745   14.91405
       H    10.94739  -14.54628   16.47697
       O    11.86471  -14.75937   16.23908
      H1    11.98215  -15.64986   16.66860
       H     8.98778  -14.45238   17.59169
       O     9.59177  -13.69708   17.65430
      H1    10.29971  -13.97164   18.23369
       H    11.52073  -10.16523   16.50207
       O    12.46406  -10.02922   16.68001
      H1    12.69668   -9.14700   16.36318
       H    15.56736  -16.44726   18.55009
       O    16.19034  -17.06591   18.11716
      H1    16.22661  -17.84042   18.69694
       H    17.81196  -17.08021   14.91320
       O    18.39805  -17.82260   15.11050
      H1    17.88136  -18.42939   15.60522
       H    14.90562  -11.61579   17.47093
       O    14.19322  -12.17279   17.13805
      H1    13.52834  -11.55806   16.80504
       H    10.67453  -15.62070   13.35886
       O    11.15836  -16.19420   13.96186
      H1    11.49529  -15.58506   14.64818
       H    13.29732  -11.98213   14.20953
       O    13.46427  -11.11679   13.80936
      H1    12.62698  -11.05669   13.33172
       H    16.88154  -10.81927   17.07998
       O    16.61749  -10.73924   18.03191
      H1    16.17891   -9.84982   18.02983

