60
frame 2 | Written by MDAnalysis XYZWriter (release 2.4.3)
       H    12.89182    4.68276    1.69467
       O    12.36206    4.20127    2.36441
      H1    13.05438    4.08361    3.06314
       H     8.50458   -0.85387    4.75103
       O     9.21595   -0.91405    4.10676
      H1     9.91394   -1.35853    4.62890
       H    14.11501    1.12078    3.88313
       O    14.46019    0.62493    3.14417
      H1    13.91658   -0.16661    3.26250
       H     8.78353    3.62713    0.04441
       O     8.44973    2.77025    0.33901
      H1     9.26516    2.29377    0.54315
       H    14.72970   -1.74495   -0.50848
       O    14.99425   -0.83973   -0.69935
      H1    14.36710   -0.27361   -0.25831
       H    12.79886    1.53264   -2.54817
       O    13.61890    1.07875   -2.24725
      H1    14.14337    1.77615   -1.84230
       H    10.68757    1.94112    4.54018
       O    11.09735    1.17782    4.04860
      H1    10.49206    0.47041    4.25336
       H    10.94984    2.83727   -2.92639
       O    11.21148    1.97534   -3.30373
      H1    10.74045    1.37777   -2.72955
       H     8.86383   -0.43069   -0.45491
       O     8.62358   -0.87632    0.35483
      H1     8.03277   -0.27420    0.81846
       H    14.34569    1.57628    1.64484
       O    14.27394    1.83874    0.70761
      H1    13.72816    2.64293    0.70732
       H    11.16997    5.40679    1.67426
       O    10.93540    6.15354    1.07547
      H1    10.99895    6.93639    1.65284
       H     7.83221   -0.52742    2.53103
       O     7.05216   -0.05883    2.25717
      H1     6.50478   -0.80520    1.99692
       H     8.58380    6.14343   -0.96805
       O     9.20635    5.40498   -0.83638
      H1     9.73816    5.67103   -0.09500
       H    14.06083    3.87678   -1.02836
       O    13.30909    4.17441   -0.51557
      H1    12.61047    4.28437   -1.20397
       H    11.21766    1.49458    2.12701
       O    11.01477    2.04358    1.31854
      H1    11.55558    2.84135    1.51768
       H    10.50417    4.95637   -1.96903
       O    11.20017    4.54576   -2.48246
      H1    11.55957    5.23979   -3.05085
       H    11.74928   -1.20313    0.95757
       O    11.15816   -1.78197    1.40876
      H1    10.25053   -1.51667    1.16999
       H     8.08046    3.26580    2.18071
       O     7.94038    3.66501    3.01985
      H1     8.28490    2.99909    3.63772
       H     7.64599    2.14569   -1.15563
       O     7.56807    1.60551   -1.94595
      H1     8.33872    1.05379   -1.96983
       H    11.35770    1.06323   -0.03913
       O    11.29978    0.62340   -0.91395
      H1    12.24463    0.52777   -1.08960

