60
frame 1 | Written by MDAnalysis XYZWriter (release 2.4.3)
       H    15.25550   18.13249  -13.94139
       O    14.78964   18.62783  -14.61021
      H1    14.23775   17.96029  -15.04406
       H    19.07738   17.29801  -10.79421
       O    18.55959   17.54043  -11.54637
      H1    19.21608   17.97330  -12.10033
       H     8.85698   14.45086  -16.18405
       O     9.73660   14.74498  -15.93545
      H1     9.57372   15.40217  -15.24761
       H    16.57995   13.32526  -11.92367
       O    16.12725   13.78006  -11.22467
      H1    15.58667   14.40912  -11.70827
       H    11.62327   17.03534  -16.10631
       O    11.82376   16.58111  -16.92848
      H1    11.21640   15.84573  -16.91351
       H    18.49418   15.81710  -12.20040
       O    18.69913   14.87526  -12.36310
      H1    18.60124   14.45411  -11.50760
       H    12.55814   17.41079  -18.41124
       O    12.99795   18.10681  -18.90548
      H1    12.78819   18.92806  -18.45223
       H    16.28420   17.67206  -17.93496
       O    15.73366   18.25137  -18.46693
      H1    14.80828   17.96909  -18.32484
       H    15.94383   17.72628  -11.53011
       O    15.70717   18.48483  -10.98998
      H1    14.83156   18.24293  -10.69535
       H    17.78918   16.39159  -16.26956
       O    16.95131   16.71706  -15.82250
      H1    17.36426   17.19097  -15.06807
       H    13.17249   15.90193  -16.07172
       O    13.78712   15.64361  -15.37136
      H1    14.56240   15.43674  -15.82277
       H    10.70620   13.74983  -14.57612
       O    11.11041   13.72601  -13.71372
      H1    11.89936   13.18952  -13.86904
       H    17.77669   12.21451  -16.61959
       O    17.92730   13.15340  -16.46334
      H1    17.42025   13.34569  -15.66199
       H    15.28070   17.56020   -8.33869
       O    16.14818   17.39738   -8.69123
      H1    16.06644   17.56523   -9.64352
       H    12.71117   18.90815  -14.07493
       O    11.77332   18.99625  -13.87486
      H1    11.53486   18.06384  -13.81258
       H    11.01862   15.62492  -13.72606
       O    10.67115   16.49448  -13.80068
      H1    10.10047   16.60781  -13.01623
       H    15.20822   14.84755  -19.21873
       O    14.71930   14.82251  -18.40197
      H1    13.85240   14.56537  -18.67381
       H    17.62888   14.43210  -13.62573
       O    16.94465   14.19982  -14.29308
      H1    16.87575   14.98943  -14.88929
       H    13.08481   18.72023   -9.26437
       O    13.07300   18.44932  -10.20465
      H1    12.28021   17.89853  -10.22203
       H    16.00266   15.45080  -13.35060
       O    15.35824   16.11962  -13.14968
      H1    14.67933   16.01394  -13.82537

