60
frame 2 | Written by MDAnalysis XYZWriter (release 2.4.3)
       H   -11.19340  -14.86969   -7.24218
       O   -11.28891  -14.99793   -8.20625
      H1   -12.22568  -15.15468   -8.30802
       H   -10.80967  -13.02320   -5.57009
       O   -11.23912  -12.17091   -5.70928
      H1   -12.14337  -12.40494   -5.97949
       H    -4.77352  -12.79304   -4.31191
       O    -4.71747  -11.83200   -4.34192
      H1    -5.23722  -11.58657   -5.13725
       H   -13.14797  -11.90456   -2.92247
       O   -12.31517  -11.57312   -3.16735
      H1   -12.13867  -11.80141   -4.08563
       H    -7.37872  -12.53853   -2.77650
       O    -7.45942  -13.40985   -3.17538
      H1    -7.16262  -14.04012   -2.53484
       H   -11.72589  -15.30181   -3.15065
       O   -10.79535  -15.29491   -2.88654
      H1   -10.68577  -14.42615   -2.51546
       H    -8.00265  -13.13595   -9.36374
       O    -7.83270  -12.98336   -8.40150
      H1    -8.67291  -12.62162   -8.11304
       H   -10.55799   -9.35716   -1.56718
       O    -9.93787  -10.02310   -1.25594
      H1   -10.36722  -10.84697   -1.44880
       H   -11.47320  -12.53672   -1.96661
       O   -10.91916  -12.90079   -1.26569
      H1   -11.52218  -13.17702   -0.54526
       H   -10.92851   -9.75151   -4.95649
       O   -10.43221   -8.95048   -4.86343
      H1   -10.15228   -8.76032   -5.77342
       H    -6.90504  -11.68235   -6.21476
       O    -6.05699  -11.47745   -6.61504
      H1    -6.15505  -11.88718   -7.47432
       H    -7.16392  -15.50698   -7.03664
       O    -7.41505  -14.72626   -6.57728
      H1    -7.62501  -14.08304   -7.27326
       H    -6.73180   -9.06916   -8.50814
       O    -7.21407   -9.07104   -7.67282
      H1    -6.78698   -9.83815   -7.23988
       H    -4.85166  -15.05281   -4.40267
       O    -4.85293  -14.88177   -5.36764
      H1    -5.79190  -14.65508   -5.52447
       H   -10.12857  -15.24067   -4.80266
       O   -10.18492  -15.03012   -5.74662
      H1    -9.27480  -15.06324   -6.09592
       H   -10.24125  -11.37407   -7.02697
       O    -9.97042  -11.36353   -7.96616
      H1   -10.68238  -11.79965   -8.36945
       H    -8.39615   -8.89466   -4.15368
       O    -7.74277   -9.53403   -3.80920
      H1    -6.93609   -9.06044   -4.00874
       H   -10.26932   -9.81079   -7.57231
       O   -10.07192   -8.86648   -7.56188
      H1    -9.10350   -8.80216   -7.44860
       H    -8.23738  -11.17099   -4.60236
       O    -8.38120  -11.78720   -5.31518
      H1    -8.57580  -12.58080   -4.82769
       H    -5.77227  -11.09475   -2.24779
       O    -6.67072  -11.02757   -1.87838
      H1    -7.10970  -10.40963   -2.47508

