60
frame 2 | Written by MDAnalysis XYZWriter (release 2.4.3)
       H    -8.72574  -16.95765    9.52137
       O    -7.97015  -16.78561   10.04258
      H1    -7.29554  -17.41896    9.73997
       H    -5.59600  -10.21871    9.40826
       O    -4.84444   -9.63051    9.55164
      H1    -5.12308   -8.87306    9.06531
       H    -8.61710   -7.99366    5.29325
       O    -7.83572   -8.16121    5.83340
      H1    -7.78758   -9.13271    5.84432
       H    -3.46983  -15.31715    8.84941
       O    -4.39107  -15.59002    8.85805
      H1    -4.89820  -14.79222    9.13208
       H    -8.14650  -11.13543   10.72153
       O    -7.36619  -11.07471   10.15837
      H1    -6.97361  -11.92213   10.29456
       H   -10.80707  -10.17378    8.69988
       O   -11.30915  -10.83740    9.18323
      H1   -10.73459  -11.08631    9.89642
       H    -8.32305  -17.26842    5.66095
       O    -8.88517  -16.50030    5.68145
      H1    -8.39051  -15.84801    5.15104
       H    -9.47790  -12.33880    6.59556
       O   -10.25117  -12.65585    6.13261
      H1   -10.82820  -13.08370    6.79230
       H    -5.69463  -14.07387    5.82178
       O    -4.84892  -14.54667    5.93588
      H1    -4.84721  -14.75656    6.89238
       H    -7.84094  -15.44246    8.51970
       O    -7.93775  -14.90420    7.68990
      H1    -8.43097  -15.49206    7.08663
       H   -10.10740  -16.84153    7.50822
       O   -10.04072  -17.27299    8.36272
      H1   -10.68210  -16.76731    8.87810
       H   -10.69780  -11.94488    4.61680
       O   -10.99564  -11.33445    3.93530
      H1   -10.28639  -11.37540    3.29822
       H    -9.24698  -10.89673    5.32245
       O    -8.35516  -10.75669    4.98113
      H1    -8.46970  -10.66257    4.02980
       H    -8.05761  -13.90348    4.02767
       O    -8.93503  -14.23000    4.32083
      H1    -9.07679  -13.83961    5.20777
       H   -11.79534  -14.92250    9.59806
       O   -11.52024  -15.67918   10.11256
      H1   -11.17929  -15.31248   10.94018
       H    -3.61687  -11.38309    8.60647
       O    -3.64433  -12.22348    8.12782
      H1    -4.58826  -12.31783    7.92251
       H    -6.12366  -14.21785   10.81249
       O    -5.90408  -13.59316   10.09663
      H1    -5.26787  -13.05755   10.53938
       H    -5.56207   -9.97741    6.95979
       O    -5.80028  -10.89397    6.71863
      H1    -6.76214  -10.93231    6.82923
       H    -7.94319  -11.64586    8.70238
       O    -8.15427  -12.06746    7.86300
      H1    -8.09081  -12.99824    8.14189
       H   -12.64651  -13.79932    7.92226
       O   -11.81288  -13.77253    8.40264
      H1   -11.77203  -12.87532    8.73883

