60
frame 2 | Written by MDAnalysis XYZWriter (release 2.4.3)
       H   -12.57281   -9.73313   -9.72181
       O   -12.28614  -10.62654   -9.48018
      H1   -11.93077  -10.96145  -10.29694
       H   -12.15815   -9.59456  -14.74451
       O   -12.47826   -8.68598  -14.88809
      H1   -12.40304   -8.46822  -15.80878
       H   -11.61619   -8.14219  -12.82472
       O   -11.60915   -8.79477  -12.10796
      H1   -10.66442   -8.82932  -11.80977
       H   -15.72052   -8.31307  -11.45908
       O   -15.92011   -9.19106  -11.85122
      H1   -15.07135   -9.65515  -11.74672
       H   -16.86520   -5.10807  -10.45504
       O   -16.28651   -5.37394  -11.15623
      H1   -16.89095   -5.55035  -11.89332
       H   -13.89194  -11.04714  -13.72726
       O   -13.90991  -11.43133  -12.83966
      H1   -14.66167  -12.03616  -12.90096
       H   -12.75519   -3.81802   -7.09748
       O   -12.15773   -4.38412   -7.55900
      H1   -12.57970   -4.51603   -8.41236
       H   -14.96469   -8.76657   -8.50149
       O   -15.60411   -9.22979   -7.98618
      H1   -15.58005  -10.12594   -8.35181
       H   -14.00305   -5.02175  -10.34670
       O   -14.13111   -4.29794   -9.72737
      H1   -13.60016   -3.65092  -10.18369
       H    -9.30863   -9.20249   -9.89923
       O    -9.16087   -9.38577  -10.83307
      H1    -8.42580  -10.04037  -10.83872
       H   -14.08202   -7.51393   -9.93368
       O   -13.89007   -8.33818  -10.38251
      H1   -13.10370   -8.12539  -10.88836
       H   -14.87129   -5.75817   -8.73056
       O   -15.00194   -6.50591   -8.11319
      H1   -14.17788   -6.52058   -7.58963
       H   -15.36658   -6.25693  -13.31247
       O   -14.56193   -6.76069  -13.49342
      H1   -14.84811   -7.64552  -13.74939
       H    -9.93325  -11.07253  -11.86482
       O   -10.30720  -11.30582  -12.73138
      H1   -11.09057  -10.73092  -12.75133
       H   -10.04727   -6.06142  -14.48103
       O   -10.23227   -6.92410  -14.11079
      H1   -10.98149   -7.24080  -14.65968
       H   -10.72267   -7.34738   -9.13377
       O   -10.18973   -7.16500   -9.90383
      H1   -10.86519   -7.01965  -10.57663
       H   -12.11782   -5.41513  -11.94436
       O   -12.48316   -6.21546  -11.54813
      H1   -13.19502   -6.39118  -12.16489
       H   -11.49278   -7.52828   -7.94443
       O   -12.09729   -6.82392   -8.19048
      H1   -11.88105   -6.07343   -7.60300
       H   -10.26932   -9.81079   -7.57231
       O   -10.07192   -8.86648   -7.56188
      H1    -9.10350   -8.80216   -7.44860
       H   -16.06296   -9.72919  -14.95222
       O   -16.18336   -8.87981  -14.47144
      H1   -16.08389   -9.15385  -13.54874

