60
frame 0 | Written by MDAnalysis XYZWriter (release 2.4.3)
       H     4.93204  -16.72303    5.68968
       O     4.25655  -16.85130    6.39724
      H1     3.48710  -17.11648    5.85740
       H     3.21584  -19.18078    9.26554
       O     2.86306  -18.58932    8.60080
      H1     3.69693  -18.23676    8.24827
       H     8.49686  -14.94115   11.16760
       O     9.02850  -15.44441   10.55890
      H1     8.44656  -15.95964   10.00314
       H     4.85387  -18.55457   13.56610
       O     4.09167  -18.40529   12.98876
      H1     4.06577  -17.43829   12.99383
       H    10.16202  -19.02461   12.63917
       O     9.77778  -18.34203   13.22025
      H1    10.46901  -17.63938   13.23229
       H     9.10030  -18.69396    6.90307
       O     8.47597  -18.14015    7.36838
      H1     8.54516  -18.45312    8.27610
       H    12.59611  -18.55120   11.42768
       O    12.10167  -17.74189   11.41119
      H1    12.73776  -17.02963   11.66426
       H     8.22683  -17.82580   11.02316
       O     8.18963  -18.06146   10.05504
      H1     7.23457  -18.17250    9.88527
       H    11.84945  -17.75505    9.57006
       O    11.94152  -18.10298    8.65800
      H1    12.78042  -18.56746    8.67329
       H     5.76505  -13.39469   10.89940
       O     6.35587  -14.12367   11.09900
      H1     6.26105  -14.66849   10.31124
       H     9.17631  -16.35971   13.96625
       O     8.63795  -16.15352   14.74723
      H1     9.16001  -16.54231   15.44168
       H     9.47437  -16.63958    6.64418
       O     9.60432  -15.82820    6.17668
      H1     9.97663  -15.22907    6.83599
       H    11.57394  -15.71874    8.57647
       O    11.01221  -14.94358    8.64624
      H1    10.28559  -15.24897    9.24408
       H     6.81062  -17.25311   13.33653
       O     7.15267  -18.16955   13.36471
      H1     8.10788  -18.04881   13.28477
       H     6.04199  -15.07452   12.59038
       O     5.77875  -15.89544   13.04239
      H1     5.34930  -15.59713   13.85249
       H     5.34124  -16.32776    8.50506
       O     6.13905  -15.96272    8.91568
      H1     6.61924  -15.64227    8.13431
       H    11.14625  -16.09578   12.26871
       O    10.92578  -15.83144   13.16182
      H1    10.77084  -14.87134   13.07024
       H     6.28278  -17.51254   16.54069
       O     5.83128  -18.15891   15.97213
      H1     6.12637  -17.97258   15.07316
       H     8.17865  -14.08219    7.80572
       O     7.50917  -14.54612    7.29649
      H1     8.07419  -15.09737    6.74492
       H    10.98461  -18.12129    5.51992
       O    11.16401  -18.91607    6.06649
      H1    11.32785  -18.55453    6.92328

