60
frame 1 | Written by MDAnalysis XYZWriter (release 2.4.3)
       H     8.93571    0.49770  -19.19902
       O     9.30416   -0.31175  -18.80144
      H1    10.14148   -0.01343  -18.38482
       H    12.65802   -2.52126  -17.78600
       O    12.25333   -2.39672  -18.65352
      H1    11.37628   -2.78274  -18.50093
       H    10.82224    2.06985  -12.80405
       O    11.62383    2.46602  -13.16138
      H1    12.36728    1.90859  -12.82479
       H    12.80006   -2.82879  -15.34069
       O    13.25283   -3.00664  -16.17247
      H1    13.42494   -3.95259  -16.12158
       H    12.40900    1.55069  -17.52463
       O    12.37395    0.66172  -17.82498
      H1    11.79877    0.17599  -17.21612
       H    10.42968    0.96761  -15.67128
       O    10.50317    0.09253  -16.11319
      H1    11.29689   -0.26386  -15.71400
       H    14.79819   -2.90258  -14.93062
       O    15.52131   -3.16703  -14.33645
      H1    15.41717   -4.14037  -14.30329
       H     8.52709    0.22648  -16.84053
       O     7.65790    0.47913  -16.53485
      H1     7.67268    0.23827  -15.60511
       H    12.80674   -4.65311  -13.41604
       O    12.19549   -4.04725  -13.86194
      H1    11.47061   -3.90929  -13.30027
       H    14.22896   -0.91419  -18.64482
       O    15.19827   -0.99901  -18.62386
      H1    15.35883   -1.68835  -17.95148
       H    12.71331    3.38749  -18.63014
       O    12.94962    3.25653  -17.70362
      H1    12.46449    3.92397  -17.22671
       H    10.08059   -4.17615  -17.37716
       O    10.26639   -4.21666  -18.32496
      H1    10.86810   -4.96312  -18.41866
       H    13.30610   -0.41772  -14.03055
       O    12.48900   -0.93040  -14.21277
      H1    12.10589   -1.02438  -13.33850
       H    10.89528   -4.72464  -14.94965
       O    10.18621   -4.82849  -15.58882
      H1     9.99102   -5.75988  -15.64002
       H     9.52108   -1.10736  -15.46166
       O     8.80679   -1.61645  -15.04989
      H1     8.98687   -1.53309  -14.11155
       H     9.13405    2.91223  -16.01345
       O     9.76676    2.64486  -15.32965
      H1     9.35198    2.99393  -14.53749
       H     8.27721   -1.76953  -18.63209
       O     7.65980   -2.54070  -18.53573
      H1     8.18911   -3.29556  -18.78576
       H     9.36877    0.16119  -11.67082
       O    10.12543    0.68266  -11.35809
      H1    10.83722    0.08130  -11.52970
       H    12.55449    4.57351  -15.11742
       O    11.82033    4.46467  -15.74748
      H1    11.44843    3.61302  -15.53927
       H    14.51751    1.83613  -14.09781
       O    14.47690    1.06905  -13.49792
      H1    15.21007    0.51386  -13.78769

