60
frame 2 | Written by MDAnalysis XYZWriter (release 2.4.3)
       H     2.86953   14.94530   -9.54513
       O     2.77355   14.59536   -8.63736
      H1     3.56984   14.02038   -8.60874
       H     8.06711   11.36805   -5.98990
       O     8.15952   11.03335   -6.92024
      H1     8.33194   10.07142   -6.90329
       H     0.85521    9.61575   -7.28874
       O     1.64190   10.04199   -7.60772
      H1     2.16765    9.31453   -7.92598
       H     4.53274   12.56514   -5.09141
       O     5.16793   12.84155   -4.40625
      H1     5.95662   12.93355   -4.93677
       H     1.84821   14.21959   -7.21232
       O     1.46570   14.19786   -6.31790
      H1     1.78700   14.98832   -5.90971
       H     9.20883   12.92488  -10.95013
       O     8.52858   12.65629  -10.33164
      H1     7.79108   13.28493  -10.48984
       H     3.39870   16.67756   -7.98450
       O     3.97788   17.40623   -7.76243
      H1     3.38263   18.15796   -7.82545
       H     5.02229   13.27507  -10.05249
       O     5.00001   13.97471  -10.70358
      H1     4.54070   13.59940  -11.44368
       H     1.87113   12.93444   -9.24314
       O     1.65790   12.08865   -9.67613
      H1     1.79117   11.46809   -8.96343
       H     7.91891   15.15832  -11.92736
       O     8.11094   15.96151  -11.41426
      H1     7.85790   15.72156  -10.53561
       H     6.47514   10.17978   -7.56996
       O     5.56467    9.93683   -7.83023
      H1     5.67317    9.28918   -8.50324
       H     2.30632   12.58179   -5.79996
       O     2.77081   11.72516   -5.67164
      H1     2.44154   11.24073   -6.45196
       H     5.98001   16.33487   -9.00351
       O     6.26800   15.41042   -8.90780
      H1     5.87243   14.97848   -9.65591
       H     4.15594   11.26635  -11.05288
       O     4.28653   10.50950  -10.46046
      H1     4.70393   10.95323   -9.71311
       H     5.89004    9.40203   -5.77262
       O     6.03575    9.89994   -4.96967
      H1     5.19894    9.93659   -4.50431
       H     6.13806   14.74516   -7.42240
       O     6.26711   14.19940   -6.62798
      H1     7.22974   14.06875   -6.66053
       H     5.83260   16.11799   -6.00370
       O     5.54549   16.73840   -5.31903
      H1     4.96703   17.33660   -5.82048
       H     8.75675   12.18274   -4.23955
       O     7.83535   12.17009   -4.46528
      H1     7.45909   11.68322   -3.71742
       H     5.09109   13.19700   -7.58228
       O     4.71505   12.71670   -8.31607
      H1     5.06088   11.84784   -8.11372
       H     7.01552   15.14407   -3.47320
       O     7.87253   14.75738   -3.69812
      H1     7.63771   13.87441   -4.02215

