60
frame 1 | Written by MDAnalysis XYZWriter (release 2.4.3)
       H     4.09133   16.86276  -17.82773
       O     3.26622   17.01453  -18.26375
      H1     3.47076   17.82605  -18.75320
       H     3.97621   11.89634  -13.35982
       O     3.52016   12.39826  -12.69552
      H1     3.52706   13.29093  -13.02161
       H     3.20931   11.53229  -17.01709
       O     3.98816   11.05539  -16.69345
      H1     4.45024   10.87578  -17.52846
       H     0.34404   12.46355  -16.61422
       O     0.40717   12.62701  -17.56770
      H1    -0.01115   11.82664  -17.89705
       H     7.00765   13.46232  -17.52937
       O     7.73166   13.08319  -17.03017
      H1     8.20068   12.63979  -17.74428
       H     2.32758   13.29516  -18.21797
       O     3.02243   13.49366  -18.83813
      H1     3.77421   13.68487  -18.26019
       H     8.91506   10.52192  -18.58183
       O     8.79054   11.46108  -18.83559
      H1     9.65326   11.78761  -18.55328
       H     7.45761   10.27401  -15.20376
       O     8.22885   10.74802  -15.59014
      H1     7.78883   11.34087  -16.20657
       H     1.17089    9.91099  -18.76695
       O     0.24352    9.82118  -18.58676
      H1    -0.03194    9.04563  -19.06875
       H    -0.29569   10.95932  -14.84963
       O     0.49719   11.37651  -15.18231
      H1     1.19550   10.78555  -14.84060
       H     6.32704   17.43163  -17.46162
       O     6.00139   16.59923  -17.16752
      H1     6.65196   16.33864  -16.48634
       H     1.08219    9.05462  -17.20303
       O     1.68947    8.35164  -16.92230
      H1     1.50775    7.69874  -17.63021
       H     6.51229    9.66698  -18.31702
       O     6.01963   10.32265  -18.87033
      H1     6.72552   10.72335  -19.45143
       H     5.88735   13.19176  -14.67929
       O     6.11084   13.89190  -14.05178
      H1     6.27759   13.44851  -13.25147
       H    -0.55872   15.22208  -13.45248
       O    -0.19120   14.64843  -14.12845
      H1     0.38863   15.20677  -14.65826
       H     1.56586   14.56429  -17.05064
       O     1.29944   15.39907  -16.65686
      H1     2.11687   15.81917  -16.37434
       H    -1.95725   14.87686  -17.10537
       O    -1.40644   14.88085  -17.93185
      H1    -0.83985   14.11686  -17.73817
       H     6.00150   14.17600  -19.44856
       O     5.81527   14.10618  -18.50537
      H1     5.92783   15.03002  -18.20160
       H     4.38549   16.63870  -15.63265
       O     3.76640   15.90990  -15.64029
      H1     3.66013   15.68310  -14.68497
       H     5.20815    9.60802  -14.52371
       O     5.20011   10.58393  -14.44878
      H1     4.97020   10.84390  -15.35771

