60
frame 0 | Written by MDAnalysis XYZWriter (release 2.4.3)
       H    11.02797   10.06003   12.76039
       O    10.72891    9.54506   13.51237
      H1    11.49131    9.45836   14.09259
       H    13.85320   14.25440   11.04255
       O    14.60394   13.65548   11.29659
      H1    14.10825   12.91258   11.71100
       H    17.60023    5.93392    8.49472
       O    17.05323    5.28056    8.98729
      H1    16.35232    5.86272    9.36364
       H    17.37269    9.23699   13.61494
       O    17.70830    8.39097   13.90249
      H1    17.10308    7.77558   13.49585
       H    12.60545   10.60563   11.44667
       O    11.65857   10.48168   11.25242
      H1    11.32672   11.38300   11.21621
       H    14.34843    7.03993    9.67485
       O    15.25567    7.34172    9.57083
      H1    15.65419    7.15794   10.42686
       H    16.82399    5.64226   12.16106
       O    16.16185    6.31380   12.09013
      H1    15.47418    6.09756   12.75856
       H    15.05741    9.89532   11.38219
       O    14.22358    9.98254   11.86586
      H1    13.94194    9.10879   12.14821
       H    11.91781    8.91463    7.15377
       O    12.08871    9.52604    7.85961
      H1    12.44543    8.97021    8.53865
       H    12.19500    7.91128   12.47516
       O    13.05595    7.52273   12.29582
      H1    12.83966    6.85199   11.63307
       H    13.92795    6.87557   13.83177
       O    14.64630    6.47954   14.34842
      H1    14.81950    7.10966   15.06198
       H    11.47739   13.56667   10.91312
       O    11.90984   13.10569   11.62189
      H1    11.79418   13.66424   12.41745
       H    18.28055   11.55410    9.57687
       O    18.42575   11.66814    8.62371
      H1    18.64389   10.81781    8.26748
       H    13.57764   10.50576    7.27749
       O    14.21341   10.93918    6.66401
      H1    14.61531   11.57318    7.24841
       H    17.39536   11.24838   12.49719
       O    17.26868   10.96356   13.41511
      H1    16.54576   11.53479   13.74730
       H    15.66437    7.85004    7.98435
       O    15.83990    8.18168    7.09626
      H1    15.52973    9.09650    7.16576
       H    16.76597   10.09162    9.89731
       O    16.40993   10.79445   10.42419
      H1    16.16906   11.45284    9.77240
       H    15.14481   11.58865   14.59987
       O    14.92402   11.88476   13.71454
      H1    14.77063   11.01745   13.26004
       H    10.84027    8.35531    8.97232
       O    10.47902    8.36383    9.84850
      H1    10.86237    9.15613   10.25789
       H    17.75287   14.43054   11.32350
       O    17.17681   14.40976   12.10382
      H1    16.31246   14.19977   11.72819

