60
frame 1 | Written by MDAnalysis XYZWriter (release 2.4.3)
       H    -4.85996  -12.62036  -10.61885
       O    -5.43295  -11.84471  -10.42642
      H1    -5.09999  -11.54881   -9.60755
       H    -3.96383  -15.24313   -9.31208
       O    -4.13176  -16.00436   -9.87391
      H1    -3.24902  -16.24720  -10.12678
       H    -4.29972  -12.59719   -3.63446
       O    -5.03550  -12.29748   -4.18648
      H1    -5.19633  -13.05698   -4.76110
       H    -1.31712  -16.62916   -4.22272
       O    -1.15524  -16.89962   -5.12166
      H1    -1.63421  -16.27315   -5.67169
       H    -7.42981  -15.24325  -10.00684
       O    -7.55372  -16.17781  -10.23704
      H1    -6.95671  -16.27765  -10.97783
       H    -1.05803  -16.63703   -9.82926
       O    -1.60932  -16.58472  -10.60847
      H1    -1.73724  -17.50645  -10.86066
       H     0.01517  -13.25153   -8.21878
       O     0.78165  -12.80108   -8.51813
      H1     0.44389  -11.96434   -8.93104
       H    -7.13522  -12.88956   -9.48105
       O    -7.70979  -13.58855   -9.10360
      H1    -8.59096  -13.46466   -9.45304
       H    -0.31447  -14.19448   -5.81829
       O    -1.28056  -14.09066   -5.81450
      H1    -1.43254  -13.32798   -5.22182
       H    -2.54425  -11.04735   -7.37979
       O    -1.59487  -11.10418   -7.43260
      H1    -1.27189  -11.45807   -6.60010
       H    -8.01184  -15.85849   -6.95591
       O    -8.04670  -14.98343   -6.58245
      H1    -8.19229  -14.43553   -7.34146
       H    -0.49177  -14.27891  -10.45806
       O    -0.78101  -13.46216  -10.82317
      H1    -1.71127  -13.46586  -10.81139
       H    -5.31894  -15.28389   -5.60303
       O    -5.45161  -14.38438   -5.92928
      H1    -6.28680  -14.40319   -6.40143
       H    -3.41671  -19.12934   -7.91918
       O    -2.96440  -18.58119   -8.56680
      H1    -3.59531  -17.82025   -8.68458
       H    -4.17594  -10.21498   -8.49127
       O    -4.36058  -11.03774   -8.00837
      H1    -5.23114  -10.85110   -7.71083
       H    -3.73403  -14.50495  -11.20142
       O    -3.55413  -13.56440  -11.21738
      H1    -3.81483  -13.38013  -12.13041
       H    -4.96515  -18.98707   -6.55003
       O    -5.06320  -18.08191   -6.27187
      H1    -5.77158  -17.68885   -6.82210
       H    -3.99470  -13.95791   -7.16644
       O    -3.54935  -13.90161   -8.02481
      H1    -3.49998  -12.93767   -8.21958
       H    -4.50794  -10.86730  -11.40822
       O    -4.34938  -10.15789  -12.08203
      H1    -4.14306   -9.42636  -11.45143
       H    -1.47501  -14.68169   -8.12987
       O    -0.63822  -15.14680   -8.31815
      H1    -0.40716  -15.61360   -7.51539

