60
frame 1 | Written by MDAnalysis XYZWriter (release 2.4.3)
       H     3.11810   -6.72831   12.48765
       O     3.73845   -6.41840   11.78107
      H1     3.56539   -5.48980   11.78664
       H    -0.76840   -4.57502    6.63792
       O    -0.78093   -5.04000    7.45819
      H1     0.11947   -5.34847    7.60340
       H     5.65808   -1.59912   11.63800
       O     6.51092   -1.80441   11.26657
      H1     7.03180   -0.98863   11.46458
       H     0.56604   -2.43003    7.84027
       O    -0.37874   -2.35633    8.04149
      H1    -0.62680   -3.27208    8.09883
       H     6.49519   -3.51645   11.45618
       O     6.64880   -4.39134   11.89368
      H1     6.28671   -5.03336   11.29369
       H     3.59003   -2.01541   11.17612
       O     3.84103   -1.09226   11.25227
      H1     3.06181   -0.67819   11.64561
       H     2.41299   -4.67157    8.75399
       O     3.07574   -4.02416    8.97207
      H1     3.92270   -4.47506    8.73577
       H     1.80000   -6.72080    8.91928
       O     1.50081   -6.25758    8.14022
      H1     1.49106   -6.96850    7.48851
       H     2.64454   -1.10721    7.62903
       O     2.73370   -1.96605    7.18063
      H1     2.61899   -2.63526    7.87507
       H     8.76521   -4.17858    8.40888
       O     8.58733   -3.31042    8.01437
      H1     7.66917   -3.11039    8.22797
       H     5.25812   -8.15410    7.80516
       O     4.90977   -8.65157    8.52473
      H1     5.53409   -8.47800    9.22980
       H     3.11953   -8.09709    9.21372
       O     2.41616   -8.42405    9.79048
      H1     2.41355   -9.32690    9.50172
       H     5.96843   -5.81359    9.71925
       O     5.95614   -6.48517   10.39862
      H1     5.03038   -6.45690   10.67997
       H     2.98675   -1.59925    5.49661
       O     3.15415   -1.35113    4.60211
      H1     3.88689   -0.71250    4.65602
       H     5.73800   -5.28625    7.44365
       O     5.63658   -4.80902    8.28056
      H1     5.75365   -3.89383    7.99818
       H     2.41877   -3.82996   12.49770
       O     3.10819   -3.73476   11.79615
      H1     2.60590   -3.79768   10.96824
       H     4.96160   -4.02909    5.24873
       O     4.03063   -4.18950    5.37027
      H1     3.83680   -3.59719    6.11507
       H     5.91914   -1.82524    9.39438
       O     5.77001   -2.05806    8.47632
      H1     5.74196   -1.20588    8.02005
       H     0.17712   -4.03467   10.81564
       O     0.68716   -3.46567   10.25206
      H1     0.41577   -2.58595   10.51708
       H     4.75245   -6.01263    5.97495
       O     5.47328   -6.60532    6.14344
      H1     5.86300   -6.65884    5.23996

