60
frame 1 | Written by MDAnalysis XYZWriter (release 2.4.3)
       H    17.94701   -7.61619    4.66350
       O    18.80417   -7.33968    4.32564
      H1    18.80101   -6.40850    4.59830
       H    14.55239  -11.36294   -0.68210
       O    15.41026  -11.20734   -1.08519
      H1    15.52824  -11.99185   -1.62839
       H    12.55567   -8.51428    2.13441
       O    12.93537   -8.42174    1.26421
      H1    12.18684   -8.37311    0.69518
       H    17.17477   -9.44436    0.18848
       O    18.05625   -9.77160   -0.00575
      H1    18.66499   -9.01100   -0.01610
       H    12.22674   -6.38123    1.80975
       O    12.52464   -5.76202    2.46620
      H1    12.01918   -4.95537    2.30170
       H    17.01551   -4.59381   -3.26591
       O    17.73486   -4.91259   -2.67326
      H1    18.51275   -4.85498   -3.25200
       H    18.06107  -10.28502    2.78264
       O    18.81706  -10.75595    2.41900
      H1    18.83369  -10.41849    1.51242
       H    16.44381   -4.05803    2.87045
       O    17.23041   -3.51470    2.91340
      H1    17.12708   -2.97498    2.10142
       H    15.48313   -5.85160    3.51648
       O    15.06922   -5.14677    2.99748
      H1    14.11632   -5.36481    3.06623
       H    17.69087   -5.14514    0.27616
       O    16.77134   -5.32943    0.53572
      H1    16.76955   -5.11619    1.49068
       H    16.35159   -2.11075   -0.25125
       O    17.06874   -2.31271    0.38757
      H1    17.51465   -3.03789   -0.10202
       H    15.84472   -8.16441    3.76539
       O    15.64614   -7.40192    4.36128
      H1    14.90149   -7.72103    4.89717
       H    13.00901  -10.32282    1.01001
       O    13.39891  -11.17828    0.84341
      H1    12.63662  -11.77733    0.75288
       H    16.04837   -9.05981    2.10946
       O    16.20236   -9.70705    2.83088
      H1    15.59306  -10.44018    2.71018
       H    14.94248   -7.79584    0.84828
       O    15.86752   -8.06265    0.72281
      H1    16.34303   -7.22402    0.60176
       H    16.66838   -6.12587   -1.76128
       O    16.00667   -6.78822   -2.00737
      H1    16.52773   -7.57416   -2.11238
       H    14.89539   -4.76861   -0.14970
       O    14.16016   -4.19941    0.16514
      H1    14.53656   -3.79184    0.95059
       H    18.89868   -8.94124   -2.89949
       O    17.92472   -9.00410   -2.86175
      H1    17.77861   -9.37773   -1.98347
       H    16.36142  -11.50666    0.47442
       O    16.65397  -12.12111    1.13694
      H1    17.39449  -11.66859    1.58867
       H    14.83048   -6.35780   -3.26893
       O    14.40324   -5.82026   -3.92838
      H1    13.96023   -6.50975   -4.45259

