60
frame 1 | Written by MDAnalysis XYZWriter (release 2.4.3)
       H     3.11810   -6.72831   12.48765
       O     3.73845   -6.41840   11.78107
      H1     3.56539   -5.48980   11.78664
       H     3.08874   -5.90142   16.93198
       O     3.30621   -6.18697   16.04048
      H1     3.65135   -5.37351   15.64034
       H     1.33696   -7.73095   13.80555
       O     1.95479   -6.99452   13.75488
      H1     2.22542   -6.92849   14.66550
       H     7.10840   -3.35148   13.76753
       O     6.84926   -2.61702   14.31464
      H1     6.11755   -3.06901   14.78245
       H     4.81506   -0.06641   16.36451
       O     3.87749   -0.06765   16.10583
      H1     3.41018    0.15175   16.95395
       H    -1.01585   -7.13915   17.51493
       O    -0.63937   -6.80499   16.67685
      H1    -0.86164   -7.51641   16.04532
       H     3.59003   -2.01541   11.17612
       O     3.84103   -1.09226   11.25227
      H1     3.06181   -0.67819   11.64561
       H     5.25015   -6.79739   12.83849
       O     5.73055   -6.53268   13.63870
      H1     5.94013   -7.37948   14.03492
       H     1.50182   -5.10477   14.07991
       O     1.44307   -4.12649   14.17000
      H1     1.94401   -3.89422   14.97709
       H     5.12583   -4.96964   14.44951
       O     4.58244   -4.16683   14.46888
      H1     4.36448   -4.01394   13.55048
       H     4.07860   -7.93597   16.82249
       O     3.89643   -8.86109   17.04521
      H1     4.45971   -8.98724   17.80905
       H    -0.00993   -4.91763   16.68900
       O    -0.03107   -3.97601   16.46535
      H1     0.13636   -3.99810   15.50656
       H     5.32480   -3.32354   18.01671
       O     4.86427   -2.44884   17.99602
      H1     4.04849   -2.67825   17.57364
       H     2.41877   -3.82996   12.49770
       O     3.10819   -3.73476   11.79615
      H1     2.60590   -3.79768   10.96824
       H     1.14055   -1.24399   13.11483
       O     0.25232   -1.58593   13.08206
      H1     0.35127   -2.49109   13.36253
       H    -0.48447   -0.04562   15.54410
       O    -1.27896   -0.57860   15.46518
      H1    -1.14444   -1.08103   14.62753
       H    -2.60171   -1.73721   16.87709
       O    -2.33559   -2.59705   17.21671
      H1    -1.43145   -2.67316   16.90657
       H     1.54772   -2.36322   16.80531
       O     2.34795   -2.45988   16.30384
      H1     2.73042   -1.56983   16.24259
       H     2.61290    0.09907   14.59777
       O     2.43868    0.00433   13.63704
      H1     2.04120    0.86151   13.41641
       H     0.17712   -4.03467   10.81564
       O     0.68716   -3.46567   10.25206
      H1     0.41577   -2.58595   10.51708

