60
frame 1 | Written by MDAnalysis XYZWriter (release 2.4.3)
       H     0.35571   12.59080   -3.38647
       O    -0.23157   11.86862   -3.08966
      H1    -0.63608   12.25734   -2.31784
       H     1.97743   12.95092   -2.07508
       O     2.71289   12.56929   -1.55683
      H1     3.46244   12.78414   -2.08954
       H     4.22201   12.85652   -8.26986
       O     3.87294   13.65711   -8.68447
      H1     3.09657   13.32025   -9.21490
       H     0.31651    9.47794   -8.65095
       O     1.15081    9.35845   -8.17484
      H1     0.96760    8.68653   -7.50055
       H     5.09192   13.92882   -3.92706
       O     4.80020   13.17680   -3.39825
      H1     4.53193   12.53218   -4.07499
       H     3.07806   14.77028   -5.98680
       O     2.76761   14.02933   -5.46357
      H1     2.35613   14.42810   -4.67313
       H     3.63324   15.00929   -7.63834
       O     3.78842   15.80160   -7.08160
      H1     3.09616   16.40284   -7.37337
       H     0.41629   11.81665   -9.93518
       O    -0.52115   11.67478   -9.94705
      H1    -0.57701   10.70328  -10.05234
       H     0.13267   10.66237   -5.78407
       O    -0.71783   10.97232   -5.52942
      H1    -0.60287   11.14464   -4.57653
       H     2.67872   12.41620  -11.08368
       O     2.34814   11.87343  -10.32497
      H1     2.84854   11.05617  -10.36546
       H     4.71181    9.31126   -5.89894
       O     5.43670    9.00564   -6.46476
      H1     4.96981    8.41529   -7.04376
       H     3.30751   10.81437   -4.59177
       O     4.13333   10.36629   -4.38819
      H1     3.91835    9.83985   -3.59665
       H     2.36083   12.23117   -6.16872
       O     1.93135   11.38410   -6.21009
      H1     2.40800   10.99822   -6.93091
       H     0.40307   14.84574   -3.47905
       O     1.06430   14.26758   -3.12580
      H1     1.72353   14.84449   -2.69597
       H     0.93573   15.50681   -9.89386
       O     0.76274   14.90892   -9.11813
      H1    -0.14608   14.58489   -9.30299
       H    -0.78546   14.60742   -5.78799
       O    -1.06729   14.89153   -4.90328
      H1    -1.19916   15.84016   -4.99716
       H     6.42635   13.71500   -7.27390
       O     6.05110   13.73309   -6.38347
      H1     6.74231   13.30776   -5.84486
       H     0.39965   13.37869   -7.44173
       O    -0.48984   13.18498   -7.17670
      H1    -0.33341   12.42668   -6.61076
       H     5.14556   11.82635   -6.82214
       O     4.89760   11.30755   -7.60729
      H1     5.07779   10.41627   -7.31380
       H     3.55063    8.15894   -9.85917
       O     3.76067    8.78700   -9.16120
      H1     2.89218    8.85152   -8.74807

