60
frame 0 | Written by MDAnalysis XYZWriter (release 2.4.3)
       H     3.36212  -14.13041   12.73238
       O     3.14397  -13.20619   12.88283
      H1     3.88507  -12.93307   13.43849
       H     1.87795  -17.02375    9.42811
       O     1.69265  -16.15831    9.74595
      H1     0.85172  -15.95015    9.33065
       H     3.21584  -19.18078    9.26554
       O     2.86306  -18.58932    8.60080
      H1     3.69693  -18.23676    8.24827
       H     4.85387  -18.55457   13.56610
       O     4.09167  -18.40529   12.98876
      H1     4.06577  -17.43829   12.99383
       H     7.75502  -14.28508   14.17058
       O     7.34705  -13.43312   14.03134
      H1     7.70732  -13.16522   13.13181
       H     1.24895  -14.16055   14.15158
       O     1.46313  -14.65478   14.94750
      H1     0.69512  -15.22278   15.09565
       H    -1.07011  -15.54199   15.66905
       O    -0.63805  -16.25680   16.13269
      H1    -0.51700  -16.96804   15.45737
       H     8.22683  -17.82580   11.02316
       O     8.18963  -18.06146   10.05504
      H1     7.23457  -18.17250    9.88527
       H     5.76505  -13.39469   10.89940
       O     6.35587  -14.12367   11.09900
      H1     6.26105  -14.66849   10.31124
       H     9.17631  -16.35971   13.96625
       O     8.63795  -16.15352   14.74723
      H1     9.16001  -16.54231   15.44168
       H     6.81062  -17.25311   13.33653
       O     7.15267  -18.16955   13.36471
      H1     8.10788  -18.04881   13.28477
       H     6.04199  -15.07452   12.59038
       O     5.77875  -15.89544   13.04239
      H1     5.34930  -15.59713   13.85249
       H     1.55476  -18.53967   11.95264
       O     0.63800  -18.66766   12.19744
      H1     0.68901  -18.79699   13.13904
       H     5.34124  -16.32776    8.50506
       O     6.13905  -15.96272    8.91568
      H1     6.61924  -15.64227    8.13431
       H     0.98923  -16.47308   16.91357
       O     1.70251  -16.53805   17.55578
      H1     2.10362  -17.38700   17.29478
       H    -0.07763  -17.01265   12.54636
       O    -0.20169  -16.13372   12.86559
      H1    -0.46566  -15.64864   12.05775
       H     1.88861  -16.08643   12.62790
       O     2.74072  -16.05405   12.19700
      H1     2.61686  -16.01010   11.24628
       H     3.18811  -15.72761   14.60219
       O     3.99590  -15.84334   15.14258
      H1     3.80711  -16.69143   15.57976
       H     4.08925  -15.18295   17.17075
       O     4.17018  -15.31747   18.13295
      H1     3.30258  -15.66594   18.41272
       H     6.28278  -17.51254   16.54069
       O     5.83128  -18.15891   15.97213
      H1     6.12637  -17.97258   15.07316

