60
frame 1 | Written by MDAnalysis XYZWriter (release 2.4.3)
       H    10.33166   -1.46657    3.13945
       O     9.64471   -1.34001    2.45984
      H1    10.14311   -0.87591    1.79262
       H     9.69689   -3.33704    6.04545
       O     9.64469   -4.06918    5.42067
      H1    10.20775   -3.74470    4.67901
       H     9.60490    3.75108   10.34791
       O    10.31599    3.80512    9.69600
      H1    10.40288    2.88625    9.37112
       H     6.16234   -0.57275    5.17249
       O     6.74668   -0.95170    5.82316
      H1     6.76042   -1.87063    5.54250
       H     8.47469    0.06389    9.92891
       O     8.10336    0.79779    9.43950
      H1     7.13208    0.62885    9.48956
       H     8.76521   -4.17858    8.40888
       O     8.58733   -3.31042    8.01437
      H1     7.66917   -3.11039    8.22797
       H    11.82640    1.17457    9.84115
       O    11.78739    1.55812    8.95096
      H1    12.65158    1.40208    8.55573
       H     7.75819   -3.94915    5.72992
       O     6.88713   -3.76832    5.32783
      H1     7.06511   -3.51403    4.43223
       H    12.52905    0.68479    4.57395
       O    11.73972    0.80921    4.01948
      H1    11.10042    1.33335    4.51719
       H    11.89579   -2.07776    9.51949
       O    12.61479   -2.55528    9.08631
      H1    13.26808   -2.67558    9.80637
       H    13.17126   -0.58970    6.04659
       O    13.89946   -0.08303    5.66076
      H1    14.50506   -0.66184    5.16108
       H     8.67927   -0.59599    6.22976
       O     9.37106   -0.01233    6.62533
      H1     8.90434    0.32795    7.40753
       H    12.03191   -3.43046    4.59843
       O    11.51327   -2.68331    4.28786
      H1    11.42030   -2.17668    5.10534
       H     5.91914   -1.82524    9.39438
       O     5.77001   -2.05806    8.47632
      H1     5.74196   -1.20588    8.02005
       H    11.06756   -0.83236    6.91604
       O    11.76342   -1.45073    6.62080
      H1    12.29457   -1.52714    7.45639
       H     7.06889   -0.13682    2.85508
       O     6.20884   -0.57625    2.69755
      H1     6.35717   -1.54856    2.70289
       H    10.04903    2.87548    5.63937
       O     9.34588    2.36621    5.23678
      H1     9.42028    1.49690    5.73656
       H     9.90280   -1.77386   10.39802
       O    10.08729   -1.43804    9.50598
      H1     9.70568   -2.15400    8.96153
       H     8.44430    2.08213    3.70066
       O     7.93087    1.94895    2.89101
      H1     7.01182    2.23752    3.09678
       H     6.50246    3.72972    5.37957
       O     5.79538    3.42520    5.98212
      H1     6.24300    2.88558    6.65179

