60
frame 1 | Written by MDAnalysis XYZWriter (release 2.4.3)
       H    -1.17102    0.63974    9.32875
       O    -1.27377    1.22151    8.53348
      H1    -2.14282    1.62765    8.66261
       H    -5.15102   -4.50407    5.32393
       O    -5.90737   -4.37492    4.75238
      H1    -6.24962   -5.22404    4.47789
       H    -0.76840   -4.57502    6.63792
       O    -0.78093   -5.04000    7.45819
      H1     0.11947   -5.34847    7.60340
       H    -1.91842    0.54367    1.80440
       O    -1.94400    1.09286    2.57193
      H1    -2.52534    0.55765    3.13930
       H    -4.38213    0.92199    8.80877
       O    -5.19144    0.42335    8.83016
      H1    -4.95771   -0.42065    8.43421
       H     0.56604   -2.43003    7.84027
       O    -0.37874   -2.35633    8.04149
      H1    -0.62680   -3.27208    8.09883
       H    -3.85100   -1.32493    3.37465
       O    -3.91500   -0.55525    3.96339
      H1    -3.86839   -0.97557    4.85321
       H    -2.83736   -2.36162    9.94672
       O    -2.15880   -3.05439    9.88447
      H1    -1.39438   -2.58095    9.47697
       H    -3.97513    3.07899    7.82766
       O    -3.69391    2.28126    7.37612
      H1    -4.34315    2.21748    6.64446
       H    -0.12786   -0.97313   11.44862
       O    -0.45902   -0.84804   10.54883
      H1    -1.41768   -0.76426   10.61857
       H    -3.42531   -5.09884    6.83028
       O    -3.79821   -4.23038    7.02742
      H1    -4.34576   -4.43183    7.80208
       H    -6.85567   -2.29145    6.08692
       O    -6.74482   -2.18927    7.04172
      H1    -7.59452   -2.35353    7.43418
       H    -1.00718    2.91009    5.73100
       O    -1.63574    3.55295    6.01151
      H1    -2.24925    2.97251    6.47464
       H    -0.01317   -0.65995    4.12145
       O     0.21956   -1.42835    3.54524
      H1     1.06068   -1.75270    3.87947
       H    -0.99224   -2.46821    4.50024
       O    -1.49428   -3.28757    4.40708
      H1    -1.03683   -3.84153    3.78161
       H    -0.86161    0.36366    6.74739
       O    -0.75186   -0.39505    6.12808
      H1    -0.74794   -1.14202    6.73799
       H    -4.60567    0.99966    4.56027
       O    -5.13428    1.69698    4.99385
      H1    -5.85851    1.26373    5.49194
       H    -4.72625   -3.86521    3.65579
       O    -4.04538   -3.48442    3.08126
      H1    -3.29546   -3.41243    3.71825
       H    -3.41108   -2.46767    6.53101
       O    -3.35745   -1.51247    6.36423
      H1    -2.43138   -1.40466    6.30641
       H     1.97651    0.90591    7.75310
       O     1.93897    1.38504    6.90345
      H1     1.13923    1.04436    6.52116

