60
frame 2 | Written by MDAnalysis XYZWriter (release 2.4.3)
       H     4.04350   13.38742    0.73376
       O     3.25741   13.97692    0.80263
      H1     2.91993   13.94226   -0.09726
       H    -1.18566    9.42059    6.60477
       O    -0.59921   10.11732    6.27509
      H1     0.18541    9.61821    6.02325
       H     3.72443   11.97180    3.92021
       O     3.72168   11.82841    4.88170
      H1     4.64158   11.97569    5.08395
       H    -0.95906   12.84655    0.82884
       O    -1.46957   13.26090    0.12992
      H1    -2.31770   13.16180    0.49136
       H    -3.54692   16.20531    1.80325
       O    -2.89794   15.78873    1.23384
      H1    -2.26915   15.37518    1.83417
       H    -0.65115    8.25493    3.51639
       O    -0.20274    7.41495    3.67218
      H1     0.46465    7.41383    2.97409
       H     0.58296   11.84515    1.97364
       O    -0.31443   12.09130    2.24174
      H1    -0.13285   12.74488    2.94565
       H    -0.32534   15.34513    3.70946
       O    -1.08242   14.85338    3.36851
      H1    -1.57003   14.58074    4.17993
       H    -1.37442   13.26318   -3.22188
       O    -1.32760   12.65580   -2.45746
      H1    -1.31613   13.23058   -1.70236
       H     1.25445    9.67840    0.34585
       O     0.71852   10.47584    0.04699
      H1     1.20453   10.69821   -0.76319
       H    -2.00900    8.20367    0.89094
       O    -2.10491    7.27769    1.06481
      H1    -1.51183    6.86533    0.37527
       H     2.68711   12.83315    1.78306
       O     2.39741   12.04836    2.28482
      H1     3.02084   11.38916    1.96870
       H    -1.18826   10.05348    3.02107
       O    -1.57862    9.77735    3.87595
      H1    -0.96130   10.06105    4.55352
       H    -0.25951   14.61617   -0.20805
       O     0.22419   15.43654   -0.45841
      H1     0.30087   15.31942   -1.42860
       H     1.45472   16.16957    3.11817
       O     1.58088   15.95759    4.06854
      H1     1.89621   16.77244    4.41954
       H    -2.33065   10.55510    0.79067
       O    -1.78852    9.77702    0.92397
      H1    -0.92287    9.96468    0.47675
       H    -3.24331   10.72478    3.96033
       O    -4.10389   11.06065    3.70069
      H1    -3.96119   11.67053    2.96051
       H    -4.40261   13.48255    1.13741
       O    -3.92814   12.62388    1.08016
      H1    -4.13063   12.33761    0.20101
       H     2.22002   17.09621    1.24718
       O     1.39013   16.66017    1.50068
      H1     1.10136   16.17230    0.75617
       H     2.65485    8.63456    4.64595
       O     2.13908    9.35784    5.08435
      H1     2.45789   10.14649    4.66613

