60
frame 3 | Written by MDAnalysis XYZWriter (release 2.4.3)
       H    10.25103   -3.84922   16.37892
       O    10.26205   -4.16096   17.31681
      H1    10.17232   -5.13815   17.30038
       H     7.87438   -2.03394   11.16816
       O     7.58057   -1.51836   10.42295
      H1     7.09903   -2.24462    9.98473
       H     8.87740   -7.89770   14.53253
       O     9.62722   -7.47354   14.06903
      H1     9.84954   -8.18810   13.42463
       H    12.84917   -7.08261   15.23238
       O    12.02828   -6.71923   15.50418
      H1    11.41209   -7.11930   14.91185
       H    13.04816   -3.65093   13.74259
       O    12.41260   -3.08065   13.31534
      H1    12.56240   -3.16701   12.33484
       H     6.26326   -4.52320   16.05761
       O     6.70434   -4.36968   15.22649
      H1     5.95724   -4.04694   14.66728
       H    12.98487   -2.01179   14.82690
       O    13.32790   -1.86484   15.71674
      H1    12.71010   -1.43801   16.28935
       H     8.51585   -6.51847   12.91026
       O     7.97496   -6.21587   12.10048
      H1     8.58301   -6.34639   11.35242
       H     8.94333   -7.17333   17.54778
       O     9.83955   -6.75645   17.80143
      H1    10.49032   -7.25852   17.28855
       H    10.14347    1.12059   12.57554
       O     9.52307    0.34426   12.53024
      H1     8.71043    0.79336   12.75808
       H     7.60012   -2.31857   17.46946
       O     8.19265   -2.63834   18.12734
      H1     8.74317   -3.32121   17.77744
       H    12.16772   -4.09085   17.80271
       O    13.10663   -4.04379   17.64181
      H1    13.27728   -3.77260   16.70490
       H     8.45794   -4.37049   12.05357
       O     8.62740   -3.40836   12.20399
      H1     8.80793   -3.30350   13.14631
       H    12.18439   -0.94157   10.18995
       O    11.96351   -0.07771   10.64850
      H1    11.01251   -0.12877   10.85344
       H     7.34178   -0.98152   15.68112
       O     6.70944   -1.61899   16.09928
      H1     6.83972   -2.44790   15.63036
       H     5.32508   -6.97626   15.05161
       O     6.25200   -6.84155   14.76905
      H1     6.40432   -5.86349   14.86960
       H    11.47904   -3.58485   10.24090
       O    12.36771   -3.30376   10.54319
      H1    12.82313   -3.37251    9.66905
       H     9.70837   -0.02628   14.14754
       O     9.69797   -0.41085   15.05899
      H1    10.06808    0.31615   15.60546
       H     9.34308   -3.98979    9.25594
       O     9.90154   -4.09437   10.04588
      H1     9.49169   -3.55927   10.81667
       H    10.61987   -3.31925   14.07318
       O     9.86702   -3.05212   14.60670
      H1     9.87240   -2.12731   14.78597

