60
frame 1 | Written by MDAnalysis XYZWriter (release 2.4.3)
       H     3.97621   11.89634  -13.35982
       O     3.52016   12.39826  -12.69552
      H1     3.52706   13.29093  -13.02161
       H     3.20931   11.53229  -17.01709
       O     3.98816   11.05539  -16.69345
      H1     4.45024   10.87578  -17.52846
       H     4.22201   12.85652   -8.26986
       O     3.87294   13.65711   -8.68447
      H1     3.09657   13.32025   -9.21490
       H     3.19565   15.34853  -12.01134
       O     3.71207   15.10456  -12.76959
      H1     4.54790   14.79956  -12.40574
       H    -0.46598   11.87643  -11.78087
       O    -0.33481   11.99291  -12.70692
      H1    -0.34836   12.96277  -12.93297
       H     0.41629   11.81665   -9.93518
       O    -0.52115   11.67478   -9.94705
      H1    -0.57701   10.70328  -10.05234
       H     1.09810   16.24848  -12.11609
       O     1.55522   16.16095  -11.27351
      H1     2.06419   16.97597  -11.18252
       H     4.84442   13.66384  -10.35055
       O     5.63657   13.99533  -10.84487
      H1     5.96751   13.16214  -11.19455
       H     2.67872   12.41620  -11.08368
       O     2.34814   11.87343  -10.32497
      H1     2.84854   11.05617  -10.36546
       H    -0.29569   10.95932  -14.84963
       O     0.49719   11.37651  -15.18231
      H1     1.19550   10.78555  -14.84060
       H     6.68633   11.38235  -10.84844
       O     6.69878   11.66554  -11.77727
      H1     7.52256   12.15506  -11.83703
       H     0.93573   15.50681   -9.89386
       O     0.76274   14.90892   -9.11813
      H1    -0.14608   14.58489   -9.30299
       H     5.88735   13.19176  -14.67929
       O     6.11084   13.89190  -14.05178
      H1     6.27759   13.44851  -13.25147
       H     7.25401   17.11380  -14.20658
       O     7.68726   16.38493  -14.68699
      H1     7.43612   15.61746  -14.14388
       H     2.09942   10.90586  -12.95823
       O     1.99121    9.97770  -13.16874
      H1     2.92562    9.70789  -13.25163
       H    -0.55872   15.22208  -13.45248
       O    -0.19120   14.64843  -14.12845
      H1     0.38863   15.20677  -14.65826
       H     7.61636    8.99800  -12.24194
       O     7.06434    9.35736  -12.96463
      H1     6.85399   10.24879  -12.63387
       H     1.56586   14.56429  -17.05064
       O     1.29944   15.39907  -16.65686
      H1     2.11687   15.81917  -16.37434
       H     4.38549   16.63870  -15.63265
       O     3.76640   15.90990  -15.64029
      H1     3.66013   15.68310  -14.68497
       H     5.20815    9.60802  -14.52371
       O     5.20011   10.58393  -14.44878
      H1     4.97020   10.84390  -15.35771

