60
frame 1 | Written by MDAnalysis XYZWriter (release 2.4.3)
       H    -5.15102   -4.50407    5.32393
       O    -5.90737   -4.37492    4.75238
      H1    -6.24962   -5.22404    4.47789
       H    -4.21157   -6.36323    2.21823
       O    -3.91630   -5.69526    1.59337
      H1    -3.98802   -4.91040    2.12977
       H    -6.24873   -7.25984    3.80702
       O    -7.10620   -6.95720    4.16294
      H1    -7.76312   -7.41099    3.64251
       H    -0.79701   -6.39243    3.67599
       O    -1.51886   -6.87132    4.12781
      H1    -1.55372   -7.70017    3.64782
       H    -3.39972  -10.83579    4.63221
       O    -3.43530  -11.36502    3.81200
      H1    -2.77384  -10.88923    3.26370
       H    -8.00937   -7.77586    5.56523
       O    -8.66900   -8.28469    6.07628
      H1    -9.19706   -7.57867    6.48634
       H    -3.02184   -9.19186    6.74091
       O    -2.81968  -10.12273    6.55001
      H1    -3.36599  -10.60939    7.17791
       H    -4.78647   -9.85964    1.11258
       O    -4.51108  -10.33841    0.31675
      H1    -3.68819  -10.80528    0.54246
       H    -1.56032   -6.70171    7.22548
       O    -2.14512   -7.37574    6.83081
      H1    -2.03029   -7.16285    5.91442
       H    -5.82193   -9.01777    2.92796
       O    -5.08056   -8.65427    2.44084
      H1    -4.43303   -8.43406    3.10196
       H    -7.44416   -8.69867   -0.47856
       O    -7.52649   -8.01205    0.20385
      H1    -6.77842   -7.44054   -0.06458
       H    -3.36354   -6.75291    4.14014
       O    -4.32006   -6.78301    4.28677
      H1    -4.44353   -7.30256    5.10018
       H    -6.01296   -7.82669    6.95362
       O    -5.41083   -8.43294    6.47846
      H1    -5.82417   -9.28110    6.58500
       H    -4.85433   -6.94937   -1.11482
       O    -5.35562   -6.26931   -0.64953
      H1    -4.84007   -6.05335    0.10875
       H    -1.47186   -9.67014    2.06368
       O    -1.69113   -9.46937    3.00117
      H1    -0.94639   -9.83596    3.54430
       H    -5.60920  -11.82429    0.71358
       O    -6.14195  -12.63093    0.85949
      H1    -6.11152  -13.07890   -0.01512
       H    -8.36921   -8.51299    1.86358
       O    -8.83442   -8.65324    2.70759
      H1    -9.76639   -8.91441    2.47502
       H    -5.81193  -11.78054    5.52267
       O    -5.92149  -12.05120    6.43178
      H1    -6.84404  -12.23098    6.61175
       H    -1.87313   -6.86282    0.85467
       O    -1.54196   -7.51786    0.21611
      H1    -1.86220   -7.17885   -0.62510
       H    -6.77716  -11.08009    3.38778
       O    -5.99790  -10.83920    3.93453
      H1    -5.21970  -11.07792    3.42513

