60
frame 2 | Written by MDAnalysis XYZWriter (release 2.4.3)
       H    12.97815    4.62671   -6.81435
       O    12.15957    4.73535   -7.21709
      H1    11.53023    4.20127   -6.69507
       H    13.21609   12.87240   -8.43465
       O    12.97027   12.18622   -9.05722
      H1    13.54815   11.46471   -8.80902
       H    11.09291   11.08908   -8.15588
       O    10.70243   11.59737   -7.42925
      H1     9.80023   11.26773   -7.45275
       H    11.31721    8.62654   -7.55512
       O    11.75711    8.06137   -6.92461
      H1    11.00528    7.76641   -6.38102
       H     8.06711   11.36805   -5.98990
       O     8.15952   11.03335   -6.92024
      H1     8.33194   10.07142   -6.90329
       H    14.20814    6.59395   -9.18312
       O    14.16597    6.83826   -8.25385
      H1    13.24826    6.59241   -7.93073
       H     9.56302    6.25492  -10.90122
       O     9.43965    5.82234  -11.75487
      H1     9.41911    4.85539  -11.59148
       H     8.51953    5.33523   -6.62225
       O     8.35603    5.48240   -7.56434
      H1     9.22634    5.60244   -7.93017
       H    11.09637    6.36298   -4.74428
       O    11.73302    6.57915   -4.05512
      H1    11.18443    7.18234   -3.50732
       H    11.58911   10.91661   -6.11430
       O    11.99020   10.99062   -5.23514
      H1    12.96892   10.95939   -5.37062
       H    11.18611    6.00217   -8.31113
       O    10.68072    6.26351   -9.10598
      H1    10.58768    7.24084   -9.01478
       H    14.08513    8.97929   -8.32623
       O    14.41351    9.88307   -8.19358
      H1    15.25231    9.93607   -8.68021
       H     7.69080    8.42476   -9.74276
       O     7.15941    7.95947   -9.09184
      H1     7.02810    7.10579   -9.49406
       H    15.22688   10.51918   -6.49185
       O    15.51582   10.94895   -5.64885
      H1    15.85587   10.17939   -5.17186
       H    12.64595    9.21528   -4.76364
       O    13.37202    8.67657   -4.38726
      H1    13.01720    7.80041   -4.26341
       H    10.40749   13.02907   -4.39793
       O    10.28579   13.45024   -5.25292
      H1    10.63970   12.79403   -5.83945
       H     9.98247    9.64190   -9.86829
       O    10.82577    9.48149   -9.42175
      H1    11.41166    9.51304  -10.17768
       H    13.95533    8.53842  -11.98072
       O    13.87243    7.85331  -11.29545
      H1    13.20407    7.26346  -11.66505
       H     8.56401    6.67200   -4.93626
       O     9.19976    6.00211   -4.95366
      H1     8.91671    5.39957   -4.23948
       H     8.13113    7.95245   -7.20078
       O     8.66019    8.42729   -6.56964
      H1     8.19822    8.13681   -5.77600

