60
frame 1 | Written by MDAnalysis XYZWriter (release 2.4.3)
       H    -8.87103   11.23255   -2.02233
       O    -9.41249   10.92280   -1.27531
      H1    -9.15871   11.48360   -0.51273
       H    -4.98384    7.43623   -8.11908
       O    -5.47685    8.25692   -8.09144
      H1    -6.15302    8.16250   -8.77259
       H    -4.27581    9.45890   -5.89148
       O    -4.69690    9.39224   -5.02567
      H1    -3.99130    9.23870   -4.38963
       H    -5.76736   12.24941   -5.12588
       O    -4.78389   12.30124   -5.09623
      H1    -4.48895   11.38913   -5.13315
       H    -7.92559    8.41883   -1.15903
       O    -7.14904    8.76629   -0.73424
      H1    -6.75963    8.01942   -0.23579
       H    -2.25073    6.11937   -7.80614
       O    -2.99902    6.41877   -7.23900
      H1    -2.75113    7.31315   -6.91919
       H    -6.15119    6.60287   -2.06778
       O    -6.13115    6.90982   -2.95801
      H1    -5.34879    6.51249   -3.34365
       H   -10.31071    5.51023   -4.07848
       O    -9.65521    4.83938   -4.22187
      H1    -8.97806    5.29260   -4.72042
       H    -7.13059    5.59986   -7.84512
       O    -7.10242    5.65621   -8.79968
      H1    -7.84589    5.09132   -9.06011
       H    -7.21953    6.55446   -5.77248
       O    -7.50331    5.65926   -5.93460
      H1    -6.95278    5.17505   -5.30018
       H    -7.96626   12.18873   -4.20310
       O    -7.53958   11.42014   -3.79111
      H1    -8.06042   10.73208   -4.20693
       H    -2.51307    5.80228   -3.26991
       O    -3.40901    5.76926   -2.93580
      H1    -3.34088    5.24039   -2.14644
       H   -10.33611    8.72281   -5.80204
       O   -10.80597    8.32830   -6.55294
      H1   -10.08895    7.96070   -7.07516
       H    -5.88450    3.33641   -4.93476
       O    -6.01556    4.00680   -4.24289
      H1    -5.10098    4.32433   -4.12766
       H    -9.48057   10.61155   -5.43632
       O    -9.56114    9.87379   -4.80017
      H1   -10.19526   10.18783   -4.18063
       H    -4.15800    9.00315   -2.43298
       O    -3.30864    8.67843   -2.79041
      H1    -3.48835    7.73251   -2.93486
       H    -6.54885    8.22938   -6.52364
       O    -7.26766    8.25624   -5.82177
      H1    -6.72492    8.31724   -5.03898
       H    -6.74112   10.97683   -8.15224
       O    -7.51845   10.42928   -7.91328
      H1    -7.26353   10.05045   -7.07264
       H    -8.51972    6.83340   -2.50957
       O    -9.00311    7.65731   -2.68147
      H1    -8.84053    7.89266   -3.59432
       H    -6.03499    9.93558   -1.49272
       O    -5.35776   10.50777   -1.88000
      H1    -5.66269   10.77531   -2.76669

