60
frame 0 | Written by MDAnalysis XYZWriter (release 2.4.3)
       H    -6.25998   -6.93445    7.77211
       O    -5.66677   -7.69905    7.86307
      H1    -4.80759   -7.33832    8.03571
       H    -4.72365   -6.75966   11.56401
       O    -5.38714   -6.35815   12.16122
      H1    -6.24634   -6.39901   11.72028
       H    -7.45100  -10.98956   12.67780
       O    -8.03476  -11.53802   12.15604
      H1    -7.71712  -12.43368   12.31183
       H    -9.62507  -10.81304    9.96122
       O   -10.36003  -10.76049   10.58563
      H1   -10.15974  -11.40541   11.27226
       H    -8.61029  -10.51528    7.88618
       O    -8.41238  -10.18537    8.79436
      H1    -7.78448  -10.83152    9.08909
       H    -5.12552  -10.10549   12.22810
       O    -4.46722  -10.81187   12.28889
      H1    -4.23824  -10.91216   11.35879
       H    -4.59188   -7.38967   14.71072
       O    -5.37432   -7.80960   15.10852
      H1    -6.00805   -7.08340   15.10193
       H    -9.77299   -6.96676   13.70568
       O    -9.23714   -6.96811   14.49992
      H1    -8.46808   -6.47117   14.24348
       H    -7.68048   -5.24642    9.69533
       O    -8.25680   -5.39191   10.44905
      H1    -8.33204   -4.53841   10.91388
       H   -11.09964   -5.96090   11.01559
       O   -10.94331   -5.71760   10.07815
      H1   -10.01742   -5.92761    9.93211
       H   -11.34867   -9.03051   10.14288
       O   -11.90201   -8.29892    9.81294
      H1   -11.38829   -7.50432    9.98750
       H    -8.37195   -8.40012    8.28673
       O    -8.59213   -7.49791    8.04009
      H1    -9.54996   -7.58926    7.84693
       H   -11.92080   -7.08080   13.18235
       O   -11.34588   -6.43457   12.74986
      H1   -11.73608   -5.58799   12.95109
       H    -6.89627  -11.91819   10.53501
       O    -6.54802  -12.13904    9.66409
      H1    -7.13997  -12.83919    9.34946
       H    -3.10583   -7.21165    9.72118
       O    -3.39774   -7.68299   10.48320
      H1    -3.97573   -8.33602   10.06575
       H    -6.13111   -8.87305   13.76123
       O    -6.76899   -9.28263   13.16307
      H1    -7.22393   -8.56687   12.72419
       H    -7.88852   -9.47373   15.05983
       O    -8.58832   -9.68092   15.69549
      H1    -9.29808   -9.09138   15.40495
       H    -7.60076   -5.92983    7.88811
       O    -6.81919   -5.38441    7.98211
      H1    -6.77745   -5.02184    7.05193
       H    -8.24886   -7.20365   10.72689
       O    -8.22118   -8.03233   11.19308
      H1    -8.45571   -8.71926   10.58035
       H    -6.02431   -8.69802    9.29880
       O    -5.78404   -9.23450   10.09426
      H1    -6.54311   -9.27776   10.67243

