60
frame 1 | Written by MDAnalysis XYZWriter (release 2.4.3)
       H    -8.34692   14.18732   -0.32759
       O    -8.48052   13.23216   -0.24680
      H1    -8.03470   12.92303    0.55700
       H    -7.95781   16.77376   -1.03849
       O    -7.98168   15.90992   -0.64465
      H1    -7.81313   16.10817    0.27743
       H   -10.59371   17.85557    2.32747
       O   -10.13342   17.01675    2.50109
      H1   -10.72254   16.40276    2.05909
       H    -9.71931   11.64580    5.00720
       O    -9.55167   12.52225    4.68666
      H1    -9.68952   13.07662    5.45669
       H    -9.75885   15.59951   -1.11086
       O   -10.43156   15.76574   -1.76489
      H1   -11.26993   15.46153   -1.33681
       H   -14.56602   14.64666    2.35915
       O   -14.91465   14.35001    1.52314
      H1   -15.43342   13.57171    1.75033
       H    -7.25305   18.67695   -1.96498
       O    -7.82452   18.52520   -1.21612
      H1    -7.23609   18.51424   -0.43407
       H   -14.52102   15.00723    4.81517
       O   -13.57222   14.86942    4.70595
      H1   -13.32892   14.64401    5.59055
       H   -12.66214   16.81564    1.20492
       O   -12.97794   16.57842    2.07759
      H1   -13.06919   17.40508    2.54685
       H   -10.25541   17.05777    4.32900
       O   -10.25074   17.15136    5.28539
      H1   -11.02051   17.75730    5.41402
       H   -13.99925   14.98310   -1.36040
       O   -13.10086   14.79980   -1.00977
      H1   -13.23024   14.58945   -0.08617
       H   -11.23118   18.46275   -0.19425
       O   -11.75873   17.63702   -0.36789
      H1   -11.29488   17.17209   -1.04807
       H    -8.34087   17.82433    7.68437
       O    -8.09283   17.40307    6.84890
      H1    -8.97858   17.17994    6.46574
       H    -9.49417   14.82423    7.35087
       O   -10.02510   14.54100    6.56672
      H1   -10.41348   15.34420    6.22085
       H    -6.12547   17.19449    5.15667
       O    -6.34829   17.69670    4.35888
      H1    -7.10596   18.23287    4.60817
       H    -8.53262   13.42918    3.44306
       O    -7.97010   13.47925    2.65783
      H1    -7.83921   14.44545    2.61665
       H   -13.43140   18.36561    5.47359
       O   -13.77212   17.90277    4.69264
      H1   -13.48193   17.00490    4.87826
       H   -11.14869   12.93984    3.81152
       O   -11.97492   13.06982    3.30859
      H1   -12.27671   13.96262    3.52499
       H   -11.30505   13.54173    1.67118
       O   -10.98011   13.91434    0.80847
      H1   -10.10973   13.52394    0.70609
       H    -6.87848   16.74902    3.18705
       O    -7.39993   16.29847    2.48331
      H1    -8.24517   16.70309    2.47000

