60
frame 1 | Written by MDAnalysis XYZWriter (release 2.4.3)
       H   -12.30255  -11.41097   15.24489
       O   -11.61200  -10.74445   15.47233
      H1   -10.96612  -11.30575   15.91807
       H   -10.46709  -11.01320   12.33803
       O   -10.91723  -11.85015   12.53989
      H1   -11.82399  -11.57213   12.75804
       H   -13.89755  -13.55790   15.93370
       O   -13.51232  -12.97235   15.29825
      H1   -13.85989  -13.34324   14.47494
       H   -16.56429  -12.31497   15.40887
       O   -17.15969  -13.07876   15.48526
      H1   -17.42277  -13.22622   14.55007
       H   -15.21329  -14.14361   17.57007
       O   -15.27995  -14.51607   16.67383
      H1   -16.09155  -14.12214   16.31612
       H   -11.60012   -8.77090   15.38018
       O   -11.96665   -7.93063   15.06349
      H1   -11.51414   -7.22628   15.57131
       H   -12.04027   -9.79729   17.58953
       O   -11.50833   -9.56956   18.35002
      H1   -11.78688  -10.23802   18.97714
       H   -14.38001  -13.90614   11.72363
       O   -13.92017  -13.97393   12.57718
      H1   -13.35540  -14.76299   12.48150
       H   -16.98908   -6.97494   18.34639
       O   -16.80887   -6.64918   17.45524
      H1   -17.05274   -7.43165   16.93959
       H   -18.30193  -13.17078   16.79210
       O   -19.05657  -13.26762   17.37104
      H1   -18.94427  -14.19659   17.66381
       H   -13.99501   -8.71297   18.51732
       O   -14.70630   -9.34530   18.42880
      H1   -14.82067   -9.72433   19.29692
       H   -17.51078  -14.30948   12.79697
       O   -18.17569  -13.62395   12.96470
      H1   -18.83724  -14.10193   13.43975
       H   -16.01726  -10.62036   14.15104
       O   -16.65230  -10.53605   13.40777
      H1   -16.09050  -10.69772   12.65098
       H   -16.77173   -7.41144   12.71991
       O   -15.84913   -7.20779   12.97582
      H1   -15.61809   -7.86909   13.62607
       H   -10.82614  -13.40230   13.79458
       O   -11.06273  -14.10026   14.41455
      H1   -11.95823  -13.83217   14.66187
       H   -14.46429  -11.62044   15.94056
       O   -15.30971  -11.15739   15.99777
      H1   -15.06991  -10.51618   16.68284
       H   -18.75954   -9.33569   16.55615
       O   -18.58660   -8.87399   15.72068
      H1   -18.90802   -9.51503   15.09556
       H   -13.37597   -9.72976   12.47712
       O   -13.51508  -10.53813   13.04687
      H1   -13.81110  -10.09153   13.85063
       H   -10.35287  -14.21651   17.52926
       O   -10.67143  -13.66511   18.24817
      H1   -10.56117  -14.21914   19.02720
       H   -14.84651   -7.27566   15.67591
       O   -14.49733   -8.12944   15.31400
      H1   -13.57428   -7.94162   15.22901

