60
frame 1 | Written by MDAnalysis XYZWriter (release 2.4.3)
       H   -11.32074  -16.06053   -8.04535
       O   -11.47024  -16.82916   -8.58459
      H1   -12.43296  -16.82648   -8.63529
       H   -11.29017  -13.47252   -6.48255
       O   -11.53067  -12.57828   -6.25693
      H1   -12.46466  -12.67778   -6.05063
       H   -16.29499  -13.81710   -5.11394
       O   -16.32553  -12.83899   -5.03659
      H1   -17.17734  -12.60228   -5.42811
       H   -12.47730  -10.78471   -3.64803
       O   -11.71917  -11.36143   -3.76300
      H1   -11.81739  -11.64476   -4.69280
       H   -10.42760  -17.08669   -4.84726
       O   -10.59488  -17.72285   -5.54412
      H1   -11.13675  -17.17424   -6.15505
       H   -11.56487  -16.49793   -3.03213
       O   -10.61734  -16.23093   -3.06133
      H1   -10.66803  -15.29858   -2.86684
       H   -13.77449  -12.14633   -3.13938
       O   -13.99758  -12.87770   -3.74816
      H1   -14.51886  -12.46307   -4.42780
       H   -17.47972  -16.80042   -7.02448
       O   -18.15457  -16.93894   -7.72352
      H1   -18.22015  -17.89515   -7.71331
       H   -11.20064  -12.96876   -3.09960
       O   -11.20200  -13.61751   -2.38519
      H1   -12.10662  -13.62250   -2.09085
       H   -16.97053  -12.45615   -3.26251
       O   -17.01543  -12.04327   -2.40442
      H1   -17.87897  -12.28988   -2.10309
       H   -14.45083  -16.08520   -7.59430
       O   -14.43421  -15.80702   -6.65158
      H1   -15.21899  -15.26232   -6.56865
       H   -16.19131  -16.73541   -2.91354
       O   -15.49760  -16.13140   -3.29159
      H1   -15.54120  -15.37322   -2.68488
       H   -11.26971  -15.05587   -5.77095
       O   -10.80843  -15.11840   -6.63430
      H1    -9.90429  -14.88090   -6.39447
       H   -13.13868  -14.47957   -4.04235
       O   -12.80223  -15.20634   -4.57299
      H1   -13.56000  -15.59033   -5.01548
       H   -13.17784  -17.12593   -1.51557
       O   -13.19219  -17.35605   -2.44913
      H1   -13.91872  -16.80156   -2.75334
       H   -13.90220  -15.27974   -9.64996
       O   -14.22977  -16.15708   -9.41711
      H1   -14.12221  -16.62519  -10.26115
       H   -16.59255  -15.80017   -4.53424
       O   -16.98861  -15.60238   -5.38325
      H1   -17.93134  -15.67996   -5.13534
       H   -14.83600  -19.14931   -5.95628
       O   -15.68211  -18.76166   -5.76984
      H1   -15.51348  -17.85066   -5.56773
       H   -15.96539  -13.25871   -1.54411
       O   -15.72989  -14.13658   -1.18955
      H1   -16.40592  -14.29871   -0.51209
       H   -13.33475  -12.86291   -8.74873
       O   -12.87234  -13.57623   -9.22800
      H1   -13.12265  -13.43952  -10.16237

