60
frame 0 | Written by MDAnalysis XYZWriter (release 2.4.3)
       H     3.62893   -4.67926    4.44336
       O     4.25162   -5.34136    4.10115
      H1     4.65436   -5.76196    4.86513
       H    -0.49556   -5.61112    7.14281
       O    -0.38931   -5.42809    8.08877
      H1     0.22146   -6.11958    8.34572
       H     3.79241   -1.85738    3.21865
       O     3.61520   -2.39561    4.00094
      H1     4.46639   -2.84645    4.02458
       H    -1.07462   -7.11477    5.39239
       O    -0.97058   -6.18984    5.67580
      H1    -1.18443   -5.67377    4.86049
       H     1.61240   -3.79058    2.57958
       O     1.37400   -3.86424    3.51961
      H1     1.75885   -3.06835    3.90849
       H     5.00709   -3.22221    6.70700
       O     5.86653   -2.80904    6.74188
      H1     6.41143   -3.51592    6.34390
       H     2.39469   -7.33307    5.02134
       O     1.71941   -7.61030    4.39130
      H1     2.18577   -8.15725    3.75851
       H     1.45852   -4.86339   -1.47097
       O     2.06833   -5.47822   -1.04839
      H1     2.13559   -5.08159   -0.14982
       H     6.56346   -3.80456    2.11077
       O     5.87458   -3.60884    2.76653
      H1     5.39877   -4.44164    2.77564
       H     2.05575    0.03890    6.51943
       O     2.05836   -0.69818    5.88157
      H1     1.11220   -0.92582    5.79225
       H     2.89462   -2.72212    7.63303
       O     3.07512   -3.03161    6.75775
      H1     3.11654   -2.16746    6.29825
       H     1.33067   -2.89258    1.01005
       O     2.14464   -3.42330    0.95408
      H1     2.86303   -2.79379    0.83572
       H     4.73433   -0.39970    2.26958
       O     3.85782    0.00584    2.24167
      H1     3.88293    0.51123    3.07851
       H    -0.85334   -0.54807    1.88527
       O    -1.20110    0.30736    1.68410
      H1    -2.02037    0.16540    1.19381
       H    -1.01349   -2.84702    5.02611
       O    -1.19160   -3.48773    4.30363
      H1    -0.29790   -3.75994    4.08621
       H     1.34683   -5.68660    5.66546
       O     2.00564   -5.70153    6.37869
      H1     2.19394   -4.79555    6.61930
       H     0.76557   -7.43381    1.65521
       O     0.76915   -6.55351    2.02319
      H1     0.89679   -6.69109    2.95874
       H    -0.46311   -2.72468    2.76401
       O    -0.33633   -2.29253    1.92543
      H1    -0.87954   -2.78006    1.28295
       H     3.99581   -6.29319    2.34889
       O     3.39366   -6.61859    1.65646
      H1     2.50553   -6.38715    1.99946
       H    -1.07996   -0.71319    6.18555
       O    -0.47951   -1.46008    6.16695
      H1    -0.47260   -1.76518    7.06858

