60
frame 1 | Written by MDAnalysis XYZWriter (release 2.4.3)
       H    11.01679   -9.83617   -7.29296
       O    10.86687  -10.78549   -7.16845
      H1    10.87478  -11.14986   -8.08568
       H    12.67032  -12.90252  -12.25370
       O    13.51851  -12.58273  -11.97248
      H1    14.11474  -12.72538  -12.72413
       H     8.05113   -6.78788  -11.38612
       O     8.13384   -6.61297  -12.34420
      H1     7.25822   -6.91370  -12.68457
       H     9.34531   -9.60382  -10.52485
       O    10.27890   -9.49806  -10.86334
      H1    10.27595   -8.74655  -11.48652
       H     8.13793  -12.53212   -7.70620
       O     8.12616  -11.58962   -7.43705
      H1     9.02586  -11.28933   -7.55865
       H    12.71787  -11.43384  -10.50517
       O    12.33212  -11.08975   -9.67322
      H1    11.75517  -10.40187   -9.95941
       H     6.22957   -8.29071  -10.07150
       O     6.75434   -7.45625   -9.94371
      H1     7.51908   -7.81707   -9.47526
       H     9.80477   -8.32337  -16.34153
       O     9.26309   -7.60585  -15.96554
      H1     8.66640   -7.43261  -16.68733
       H     7.35330  -13.67045  -12.20566
       O     7.34225  -12.72603  -11.90615
      H1     7.66746  -12.24578  -12.66171
       H    11.24942   -7.02547  -12.79006
       O    11.33643   -7.98727  -12.80168
      H1    11.35874   -8.20263  -13.73836
       H     8.05415   -7.92785   -7.64472
       O     8.77019   -7.43801   -8.04036
      H1     8.35616   -6.54219   -8.14507
       H     7.84298  -11.38474  -10.24956
       O     7.84571  -10.46147   -9.96948
      H1     7.85844  -10.55680   -9.01580
       H    10.75438   -7.82400   -5.56335
       O    11.18917   -8.09239   -6.37687
      H1    10.50483   -7.90497   -6.99084
       H    11.48809   -5.44139   -8.65536
       O    10.84957   -5.12382   -9.30405
      H1    10.20373   -4.66922   -8.77292
       H    10.14660  -14.01090  -12.23866
       O    10.89956  -13.44550  -12.41888
      H1    10.48244  -12.58939  -12.63050
       H    10.52232  -10.23695  -12.56888
       O    10.33582  -10.89503  -13.24718
      H1     9.46921  -10.54971  -13.51900
       H    12.60538   -9.68543  -15.11168
       O    11.68305   -9.40892  -15.07795
      H1    11.27498  -10.05555  -14.49468
       H    14.91038   -7.91792  -11.35177
       O    15.09611   -8.02149  -12.29560
      H1    16.02473   -7.75798  -12.39453
       H     9.78973   -5.45019  -12.51320
       O    10.67073   -5.44792  -12.13247
      H1    10.51786   -5.84622  -11.26542
       H     8.46627   -8.58130  -14.79967
       O     7.99659   -9.02645  -14.07266
      H1     8.04252   -8.34683  -13.40333

