60
frame 2 | Written by MDAnalysis XYZWriter (release 2.4.3)
       H    11.96806   -9.95974   -7.16118
       O    12.18052  -10.87498   -7.33168
      H1    12.26600  -10.91691   -8.30310
       H    11.01197  -13.55216   -8.48063
       O    10.62525  -13.09815   -7.76768
      H1    11.07716  -12.24242   -7.78865
       H    13.65925  -13.35556  -11.54471
       O    14.36589  -13.00728  -10.99198
      H1    15.16726  -13.09388  -11.50869
       H    16.82915  -13.30097   -7.44651
       O    16.64946  -12.42892   -7.08760
      H1    17.48918  -12.00833   -6.85947
       H    18.84000  -11.98153   -9.88040
       O    19.26738  -11.27490   -9.36004
      H1    18.54242  -10.69514   -9.09506
       H    13.13755  -10.88026  -10.59964
       O    13.00499  -10.06570  -10.08182
      H1    12.13335   -9.78630  -10.38638
       H    16.73410  -10.91324   -8.05255
       O    17.10001  -10.07702   -8.36490
      H1    17.49342   -9.65113   -7.58075
       H    17.83707  -14.94513   -8.97150
       O    17.30303  -15.25204   -8.22756
      H1    17.99966  -15.67556   -7.67034
       H    14.82222  -11.30948  -14.48247
       O    15.36701  -12.08590  -14.64331
      H1    15.40531  -12.21016  -15.58994
       H    16.22774  -16.88583  -11.04617
       O    16.46417  -17.42235  -11.80320
      H1    15.93163  -18.22631  -11.72020
       H    17.03009  -11.60386  -12.46138
       O    16.84439  -12.55639  -12.40609
      H1    16.66597  -12.69706  -13.33839
       H    12.07748  -14.25888  -10.87876
       O    12.01222  -14.68678  -10.00723
      H1    12.19951  -15.61657  -10.16028
       H    17.81860  -13.32226  -11.19472
       O    18.15458  -13.67695  -10.34280
      H1    18.99300  -14.05530  -10.55718
       H    13.78370  -13.85638  -14.66225
       O    13.50427  -14.59571  -14.06106
      H1    14.31218  -14.83475  -13.60642
       H    14.43842  -15.21643   -9.89011
       O    15.01864  -15.95228   -9.65663
      H1    15.84515  -15.58151   -9.32487
       H    12.74274  -13.45341  -12.97083
       O    12.02252  -13.28146  -12.33115
      H1    11.38018  -13.97335  -12.44834
       H    13.32729   -9.52952  -14.77913
       O    13.56194  -10.05922  -14.02432
      H1    14.09487   -9.38978  -13.51138
       H    11.96861  -10.41841  -13.23288
       O    11.10893  -10.53391  -12.86222
      H1    11.13989  -11.43185  -12.53370
       H    14.35527  -16.76761   -8.26649
       O    14.22853  -17.24373   -7.40490
      H1    13.99776  -16.52584   -6.78810
       H    14.78282   -9.57457   -9.84654
       O    15.35619   -8.85076  -10.11130
      H1    16.25464   -9.15968   -9.85673

