60
frame 2 | Written by MDAnalysis XYZWriter (release 2.4.3)
       H    -4.27443   18.07323    7.69895
       O    -4.04413   17.94697    8.60365
      H1    -4.76982   18.36333    9.08324
       H    -8.58597   17.85565    9.05168
       O    -8.91459   18.18624    8.20648
      H1    -9.17920   19.09357    8.43565
       H    -9.39433   15.80982    9.26151
       O   -10.21140   15.28384    9.19254
      H1   -10.32094   14.93807   10.05722
       H   -10.81475   17.51099    8.21789
       O   -11.53001   17.83638    7.66701
      H1   -11.49972   18.78764    7.73871
       H    -7.71684   18.58857    6.11542
       O    -7.20478   19.08659    5.43916
      H1    -7.54380   18.76049    4.58822
       H   -13.28769   14.77033    7.58168
       O   -12.43915   14.34328    7.39549
      H1   -11.96239   14.57448    8.21636
       H   -10.33953   16.97198    5.08743
       O    -9.65981   17.53979    5.46992
      H1    -9.97160   17.81928    6.36148
       H    -6.88824   18.32178   12.77041
       O    -6.04444   17.90767   13.09117
      H1    -6.05785   16.99376   12.71476
       H    -6.06692   12.84715    7.06386
       O    -6.76606   13.41152    7.44481
      H1    -7.49598   12.83537    7.72128
       H    -8.27194   14.90241    6.44556
       O    -7.89682   15.70217    6.04468
      H1    -8.67736   16.21650    5.77842
       H   -14.21903   17.14921    9.01003
       O   -13.33239   16.94196    9.36357
      H1   -12.70123   17.47995    8.94038
       H    -4.97082   16.98543    5.16816
       O    -4.69340   17.88968    5.38378
      H1    -5.55184   18.33652    5.38070
       H   -12.62188   16.98876    6.70454
       O   -13.19815   16.56856    6.01308
      H1   -13.12489   15.61514    6.20234
       H   -11.00988   14.62512   11.50239
       O   -10.13437   14.67311   11.87492
      H1   -10.00367   13.83774   12.35117
       H    -8.53641   16.50802   11.59562
       O    -8.09063   16.49330   10.75081
      H1    -7.99355   15.54116   10.56459
       H   -12.91570   17.47104   13.35390
       O   -12.04624   17.90327   13.35445
      H1   -11.74137   17.78308   12.48289
       H    -9.58304   17.11357   13.90521
       O    -8.99191   16.49600   13.41029
      H1    -9.61055   15.89989   12.95760
       H    -6.77591   13.63851    9.39107
       O    -6.82517   13.65166   10.36124
      H1    -6.97590   12.72091   10.61697
       H    -5.57000   14.87344    4.25692
       O    -5.31654   15.13228    5.16063
      H1    -6.18560   15.10228    5.57377
       H    -5.89919   14.65887   11.48639
       O    -5.55832   15.05863   12.29127
      H1    -6.12149   14.74176   13.02810

