60
frame 0 | Written by MDAnalysis XYZWriter (release 2.4.3)
       H     0.63133    4.69671   -3.71351
       O     0.23944    5.57388   -3.90042
      H1     0.99800    6.14948   -4.03317
       H    -3.26250    3.16155   -3.09488
       O    -3.72330    2.50716   -3.66359
      H1    -3.92683    1.78875   -3.04461
       H    -1.98069    2.18820   -6.06425
       O    -1.82143    1.47653   -5.40758
      H1    -2.41389    1.70134   -4.67438
       H     0.08786    5.43199    0.56200
       O    -0.68552    5.40441   -0.03447
      H1    -0.63788    4.56542   -0.45775
       H    -4.38302    6.14736    0.02013
       O    -4.83078    5.52692   -0.56982
      H1    -5.07197    4.82711    0.03021
       H    -3.54772    3.00403    0.46008
       O    -3.90206    2.77875   -0.39831
      H1    -3.73835    1.84650   -0.49356
       H    -2.65348    5.53264   -6.13381
       O    -3.41394    6.08780   -6.38467
      H1    -2.96371    6.86047   -6.71986
       H    -0.89416    1.98028   -1.44851
       O    -1.26053    2.86909   -1.31541
      H1    -2.05472    2.71518   -0.83167
       H     0.82564    2.03488   -4.31932
       O     0.29088    2.63097   -3.79262
      H1    -0.56527    2.47340   -4.18069
       H    -5.94135    7.53760   -4.03210
       O    -6.78548    7.93655   -3.72253
      H1    -7.07841    8.55284   -4.41544
       H    -4.05915    6.51614   -4.68370
       O    -4.20246    7.12651   -3.93981
      H1    -3.75117    6.68687   -3.19352
       H    -6.51671    3.45643   -5.74347
       O    -6.20600    3.80370   -4.88721
      H1    -5.30633    3.43911   -4.91013
       H    -2.87895    7.74728   -1.57763
       O    -1.98375    7.67614   -1.89188
      H1    -1.90144    6.76698   -2.20211
       H    -2.54115    7.71244    0.97429
       O    -2.91698    6.85734    0.78922
      H1    -2.15520    6.37940    0.46029
       H     0.71020    9.33172   -1.63374
       O    -0.10022    9.72636   -1.88719
      H1    -0.77295    9.06941   -2.01508
       H    -0.50252    4.65282   -5.63702
       O    -1.31369    4.54847   -6.16138
      H1    -0.98287    4.51017   -7.05652
       H    -6.37858    4.28851   -3.14629
       O    -6.73240    4.56734   -2.28203
      H1    -6.02783    4.96473   -1.73112
       H    -2.92580    8.37351   -4.45238
       O    -2.21453    8.98354   -4.71036
      H1    -1.95997    9.33930   -3.83315
       H    -5.81420    8.77501   -2.29609
       O    -5.42364    8.65606   -1.40741
      H1    -5.40892    9.55638   -1.06016
       H    -3.63830    4.72233   -1.69699
       O    -2.97909    4.91448   -2.41477
      H1    -2.18837    4.45325   -2.10982

