60
frame 2 | Written by MDAnalysis XYZWriter (release 2.4.3)
       H   -18.65813    8.92001    0.78660
       O   -18.04589    8.14959    0.74618
      H1   -17.33848    8.44311    0.16149
       H   -16.09414    8.11558    4.62472
       O   -15.29673    7.59811    4.78883
      H1   -15.64346    6.86575    5.29328
       H   -16.52055    9.78784   -1.64418
       O   -16.28288   10.35372   -0.91461
      H1   -15.45915   10.78244   -1.19393
       H   -12.34475    9.51844    6.28282
       O   -12.13493    9.84459    7.15981
      H1   -11.63979    9.09227    7.55852
       H   -12.43626    8.58424    4.18418
       O   -13.04768    9.19351    4.62725
      H1   -13.86177    8.70415    4.75160
       H   -14.68429    7.40477    3.00930
       O   -14.56023    7.77226    2.10498
      H1   -13.61353    7.56923    2.00014
       H   -13.91833   14.26546    1.11345
       O   -13.52703   14.02302    0.26660
      H1   -12.76778   13.48149    0.51376
       H   -14.27001   11.10945    3.11443
       O   -14.33792   10.63495    2.25740
      H1   -14.28918    9.70885    2.50389
       H   -15.01756   12.96062   -2.12615
       O   -14.48871   12.30099   -1.60673
      H1   -14.43061   12.74172   -0.74225
       H   -15.64557   13.42129    1.87464
       O   -15.38166   14.31568    2.10787
      H1   -15.92304   14.51442    2.88075
       H   -17.99696    6.97564    3.79544
       O   -17.84001    7.85732    3.48360
      H1   -17.72313    7.75257    2.54824
       H   -10.94543   12.54955    4.19289
       O   -11.73493   12.85219    3.72740
      H1   -11.57931   13.79202    3.65524
       H   -15.12397    7.88609    0.32316
       O   -15.64427    7.80072   -0.48605
      H1   -15.62688    8.68428   -0.82217
       H   -17.49121    9.44372    4.43717
       O   -17.00992    9.74270    5.20856
      H1   -17.20309   10.70198    5.23085
       H   -11.94445    9.57853    0.76801
       O   -12.40479   10.25176    0.20945
      H1   -13.07003   10.63324    0.82421
       H   -11.12418   12.77852    1.89553
       O   -11.13811   12.94803    0.94429
      H1   -11.54316   12.16563    0.58828
       H   -12.27460    9.79520   -2.68745
       O   -11.89703    8.99735   -2.29870
      H1   -11.78654    9.17344   -1.33571
       H   -11.22815    7.40364    2.31757
       O   -11.62494    7.80750    1.52209
      H1   -11.63608    7.06134    0.89910
       H   -13.46846   10.89723    4.83861
       O   -13.63361   11.75207    5.28683
      H1   -13.14986   12.38439    4.74128
       H   -17.27393   12.10213    2.05638
       O   -16.60931   11.95317    1.33845
      H1   -16.46597   11.00489    1.29865

