60
frame 1 | Written by MDAnalysis XYZWriter (release 2.4.3)
       H    10.71158   16.99616   18.63543
       O    10.12565   16.49253   18.04664
      H1    10.17752   17.08395   17.26798
       H    17.03992   16.98739   16.13236
       O    16.85142   17.90464   15.97035
      H1    15.92409   18.04909   16.26795
       H    14.50402   13.65743   14.95425
       O    14.05364   14.28073   15.57436
      H1    13.42346   13.77684   16.04953
       H     9.71425   18.37280   15.42290
       O     9.77895   17.46425   15.05898
      H1     8.95624   17.00945   15.20409
       H    13.75163   15.22462   11.63422
       O    12.99838   15.84552   11.61817
      H1    12.32818   15.36288   11.09810
       H     9.72335   17.66445   13.29315
       O     9.37837   17.68058   12.40290
      H1    10.17001   17.74428   11.84507
       H    15.93579   16.32775   13.32259
       O    16.73913   16.86856   13.32163
      H1    16.67107   17.39232   14.11916
       H    11.61322   17.19414   14.77435
       O    12.55696   17.38612   14.68354
      H1    12.63234   18.33072   14.82874
       H    13.71650   17.76156   17.43986
       O    14.25061   17.90600   16.65559
      H1    13.69294   17.79281   15.88657
       H    12.27512   18.53240   12.30885
       O    11.75493   18.95692   11.64449
      H1    12.45084   19.18784   10.98339
       H    12.19249   15.18038   13.47396
       O    11.62049   14.76508   14.05846
      H1    12.15026   14.55802   14.82479
       H     9.65581   14.93793   17.62163
       O     9.47340   14.08657   17.18072
      H1     8.65725   13.79475   17.59664
       H    10.54248   12.92249   11.57512
       O    11.46484   12.93947   11.83238
      H1    11.39162   13.30446   12.75087
       H    15.70379   16.49282   17.46649
       O    15.99760   15.62588   17.14319
      H1    15.21327   15.30907   16.66301
       H    15.48622   11.84240   15.67813
       O    15.56388   11.86814   16.65015
      H1    16.53986   11.83737   16.76619
       H    18.57778   16.64758   11.03574
       O    17.99691   17.43067   10.99779
      H1    17.30399   17.19273   11.60368
       H    17.63441   13.31038   14.93264
       O    17.75130   14.24978   15.18124
      H1    16.87438   14.48684   15.49794
       H    11.08634   13.35427   16.87600
       O    11.93245   12.90030   16.99719
      H1    11.70648   11.97631   16.83515
       H     9.61246   14.09807   14.35873
       O     8.80275   13.63312   14.58067
      H1     8.72669   13.76403   15.52008
       H    16.30404   14.41810   12.12823
       O    15.36624   14.43504   12.27517
      H1    15.24417   13.57842   12.67528

