60
frame 2 | Written by MDAnalysis XYZWriter (release 2.4.3)
       H     1.10099   -7.86594   -5.63675
       O     2.01323   -8.14513   -5.53934
      H1     2.10610   -8.97288   -6.03550
       H     0.39865   -8.35571   -3.39951
       O     0.34681   -7.73819   -2.65319
      H1     1.15299   -7.25759   -2.77644
       H     6.52586   -6.96743   -2.24188
       O     5.60384   -7.09574   -2.11499
      H1     5.57541   -7.42397   -1.21903
       H     3.83329   -7.04546   -6.74649
       O     4.37420   -6.95617   -7.53267
      H1     5.09324   -6.35643   -7.24797
       H     5.50668   -1.24947   -4.18722
       O     5.44174   -1.99196   -4.77163
      H1     5.87549   -1.73296   -5.61431
       H     5.32006  -10.06999   -8.52471
       O     5.74443   -9.82813   -7.66768
      H1     5.26356   -9.04557   -7.42482
       H     5.54771   -5.00600   -2.00221
       O     5.29013   -4.29941   -1.39946
      H1     5.97272   -3.60903   -1.52803
       H     2.05439   -5.36445   -2.98779
       O     2.48108   -6.17763   -2.70527
      H1     2.45581   -6.11122   -1.73865
       H     0.91703   -5.94632   -7.15422
       O     1.47132   -5.55652   -7.82848
      H1     1.90277   -4.81926   -7.38224
       H     7.80054   -8.11014   -3.04802
       O     8.13070   -7.63831   -2.27942
      H1     9.06327   -7.47662   -2.55464
       H     7.89997   -8.27058   -7.76823
       O     8.06950   -7.67370   -7.04998
      H1     7.73452   -8.19725   -6.30967
       H     6.78969   -3.21837   -4.48206
       O     7.32406   -3.97840   -4.21835
      H1     8.16283   -3.84465   -4.70636
       H     5.16104   -4.10113   -8.27485
       O     5.35908   -4.22658   -9.20804
      H1     5.54871   -3.31628   -9.46472
       H     4.16916   -8.26878   -2.98806
       O     4.11215   -9.01481   -3.58586
      H1     3.69625   -8.67413   -4.35704
       H     7.13335   -9.51770   -4.71719
       O     6.99615   -8.55363   -4.71574
      H1     6.06634   -8.44671   -4.49040
       H     7.20068   -4.99463   -6.09477
       O     7.01147   -5.13272   -7.03385
      H1     7.24256   -6.09544   -7.16845
       H     3.68133   -6.32152   -4.40157
       O     4.54578   -6.11240   -4.78799
      H1     5.11791   -6.12284   -4.00874
       H     3.14087   -7.61047   -8.41217
       O     2.59593   -8.23264   -8.98116
      H1     1.71039   -8.17658   -8.58842
       H     2.09177   -3.31570   -3.46557
       O     1.28549   -3.82266   -3.29966
      H1     0.92910   -3.49040   -2.47803
       H     4.30230   -4.57176   -5.90196
       O     4.21783   -4.22370   -6.80162
      H1     4.03704   -5.00001   -7.33753

