60
frame 1 | Written by MDAnalysis XYZWriter (release 2.4.3)
       H     7.47944    4.31828   17.52840
       O     6.69546    4.66053   17.04357
      H1     6.14296    5.14811   17.66904
       H     9.61632    9.16258   12.68749
       O    10.32170    8.75576   13.19197
      H1    10.94887    8.47311   12.52013
       H     5.15157    8.15244   15.72089
       O     5.72134    8.08121   14.94416
      H1     6.55007    8.45605   15.23059
       H    11.49698   10.34803   18.41803
       O    11.63182    9.97102   17.53524
      H1    10.75634    9.72855   17.19265
       H    16.38593    6.05261   15.97641
       O    15.47591    6.34999   16.09170
      H1    15.33151    6.45300   17.07035
       H     9.92746    9.00663   15.00719
       O     9.51234    9.22229   15.85548
      H1     9.22232    8.37444   16.19791
       H    11.38702    5.85441   14.75225
       O    10.59256    5.87389   14.21742
      H1    10.71116    6.72951   13.77279
       H     7.79734   11.03253   14.00990
       O     7.46408   10.32549   14.56558
      H1     8.25996   10.11029   15.08271
       H    16.18647    9.40022   17.28563
       O    16.13149    9.49859   18.25484
      H1    15.73230   10.34996   18.36131
       H    13.36042    6.95403   12.57625
       O    13.94925    6.75319   13.30029
      H1    13.85920    7.53712   13.88877
       H    13.68411    6.05636   15.92971
       O    12.73246    6.05885   15.81853
      H1    12.41339    5.60865   16.61806
       H    13.02323    8.24974   15.67015
       O    13.88586    8.60971   15.37706
      H1    14.42684    8.43640   16.13718
       H     8.02065    6.37905   16.52353
       O     8.40357    7.04645   17.15994
      H1     9.12996    6.60025   17.57988
       H    17.12210    3.54486   18.04987
       O    16.24413    3.77623   17.71402
      H1    15.84916    2.92620   17.45841
       H     9.40306    4.46372   14.90823
       O     8.73709    3.86812   15.29097
      H1     8.79836    4.01594   16.23356
       H    13.13507    9.61044   13.79250
       O    13.41011    9.57041   12.85042
      H1    12.55855    9.66509   12.40696
       H    10.32123    3.85862   17.69801
       O     9.39998    3.72245   17.92195
      H1     9.32995    2.76832   17.66422
       H    11.35690    7.21945   18.44729
       O    10.92270    6.42544   18.16347
      H1    10.62211    6.01434   18.98744
       H    12.07260    3.31855   16.41254
       O    12.40833    3.43292   17.31935
      H1    13.00758    2.69155   17.50070
       H    11.08634   13.35427   16.87600
       O    11.93245   12.90030   16.99719
      H1    11.70648   11.97631   16.83515

