60
frame 1 | Written by MDAnalysis XYZWriter (release 2.4.3)
       H   -11.98034   -9.01750  -10.56401
       O   -11.87805   -9.99427  -10.53807
      H1   -11.09043  -10.15713  -11.04907
       H   -12.13702   -7.76337   -6.33994
       O   -13.07344   -7.75943   -6.20755
      H1   -13.25183   -8.67567   -6.03803
       H   -13.34126   -9.69213  -13.58641
       O   -13.38123  -10.30623  -12.89725
      H1   -12.90253   -9.86310  -12.18984
       H   -15.61815   -8.70797   -9.65697
       O   -16.27558   -9.23054  -10.14849
      H1   -15.83291   -9.59984  -10.92127
       H   -17.53390   -5.70409  -11.03901
       O   -16.90191   -4.92714  -11.00909
      H1   -16.39848   -4.99887  -10.17919
       H   -11.60201   -3.64581   -7.77250
       O   -10.79113   -3.12899   -7.77256
      H1   -10.09221   -3.70817   -7.43897
       H    -8.29599   -5.45384   -8.59555
       O    -8.33694   -5.51945   -9.55805
      H1    -7.80712   -6.29091   -9.73465
       H   -13.84638   -3.29400   -6.81022
       O   -13.70996   -3.80701   -7.61225
      H1   -13.76549   -3.12883   -8.29519
       H   -15.15027  -11.15748   -8.20986
       O   -14.24443  -11.20499   -8.52379
      H1   -14.19946  -10.63175   -9.29459
       H    -9.42265   -8.40262  -10.43610
       O    -9.05706   -8.84346   -9.66436
      H1    -9.59735   -8.51162   -8.93285
       H   -14.09340   -7.93220   -7.54177
       O   -14.63775   -7.88327   -8.33092
      H1   -14.01676   -7.58894   -9.01176
       H   -15.53238   -6.20692   -8.59036
       O   -15.96770   -5.41289   -8.27942
      H1   -15.31666   -4.73364   -8.02634
       H   -10.43103   -3.83782  -11.07541
       O   -10.16071   -4.67314  -11.47165
      H1    -9.50612   -5.02482  -10.84727
       H   -15.20494   -6.49308  -12.59043
       O   -14.98296   -7.41521  -12.41957
      H1   -15.67374   -7.90239  -12.86314
       H   -10.50708   -7.23064  -12.18175
       O    -9.85048   -7.93114  -12.14106
      H1   -10.22786   -8.55508  -12.78179
       H   -10.90162   -6.45902   -7.98537
       O   -11.40583   -6.25760   -8.78954
      H1   -10.89646   -5.59099   -9.24655
       H   -11.27388  -11.08857   -7.42901
       O   -10.88102  -10.50423   -8.07175
      H1   -11.45043  -10.48428   -8.83926
       H   -12.64387   -6.79798  -10.49956
       O   -13.13545   -7.63661  -10.55980
      H1   -13.48839   -7.56014  -11.44542
       H   -10.32883   -8.88827   -6.85167
       O   -10.42482   -7.93030   -6.80012
      H1    -9.99095   -7.69852   -5.97116
       H   -10.67718   -2.55590  -13.93879
       O   -10.73497   -3.52227  -13.89736
      H1   -10.46358   -3.76949  -13.01116

