60
frame 1 | Written by MDAnalysis XYZWriter (release 2.4.3)
       H    14.55413    2.42680   11.35718
       O    15.11974    1.85871   10.80074
      H1    15.97526    2.23846   11.06025
       H    16.18964   -1.23595   10.18975
       O    16.25484   -0.83117    9.33960
      H1    17.09927   -0.40884    9.36753
       H    12.96703   -1.50977   17.39824
       O    12.63188   -0.74709   16.92459
      H1    11.70740   -0.96626   16.78483
       H    13.34144    1.08121   18.06185
       O    14.18560    1.50393   17.82390
      H1    14.20589    1.40343   16.84647
       H    14.11182    2.59152   15.10579
       O    15.00864    2.30372   15.17489
      H1    15.38095    2.63732   14.35321
       H    11.56950    1.09552   12.29494
       O    12.24529    1.17524   11.61828
      H1    12.86810    0.46859   11.87362
       H    16.02569   -1.74247   17.76033
       O    16.55782   -2.01835   17.02772
      H1    16.81186   -1.19467   16.64305
       H    18.86157   -0.07218   11.86846
       O    18.03303   -0.08068   12.35943
      H1    17.70270   -0.97073   12.18060
       H    17.17526   -3.97481   14.51073
       O    16.51201   -4.67310   14.29207
      H1    15.81818   -4.48573   14.93362
       H    16.73008    0.13026   15.19059
       O    17.62785    0.18422   15.44987
      H1    18.12515   -0.08624   14.66407
       H    14.30833   -3.60070   11.72352
       O    13.73640   -2.87843   11.52174
      H1    14.13715   -2.11049   11.94872
       H    13.30179   -3.63369   15.37994
       O    14.09279   -3.98584   15.78773
      H1    13.76978   -4.57207   16.48155
       H    12.97804    3.15926   13.75466
       O    12.43606    2.75983   14.43317
      H1    12.02515    2.00522   14.00269
       H    17.24408   -3.13100   12.17499
       O    16.91432   -2.62875   11.41335
      H1    16.48298   -3.27138   10.82429
       H    18.22343    3.58669   15.16744
       O    17.54240    4.27029   15.13961
      H1    16.97296    4.02658   15.88145
       H    18.31391    3.00512   11.71290
       O    17.68030    2.47367   11.23818
      H1    17.67814    1.66618   11.77996
       H    15.18615   -1.50344   15.46928
       O    14.72457   -0.73349   15.14458
      H1    13.85084   -0.79504   15.57174
       H    17.12210    3.54486   18.04987
       O    16.24413    3.77623   17.71402
      H1    15.84916    2.92620   17.45841
       H    14.87476    0.32280   12.23296
       O    14.40161   -0.45863   12.59988
      H1    14.53519   -0.38377   13.54720
       H    12.07260    3.31855   16.41254
       O    12.40833    3.43292   17.31935
      H1    13.00758    2.69155   17.50070

