60
frame 1 | Written by MDAnalysis XYZWriter (release 2.4.3)
       H     4.09133   16.86276  -17.82773
       O     3.26622   17.01453  -18.26375
      H1     3.47076   17.82605  -18.75320
       H     3.97621   11.89634  -13.35982
       O     3.52016   12.39826  -12.69552
      H1     3.52706   13.29093  -13.02161
       H     8.85698   14.45086  -16.18405
       O     9.73660   14.74498  -15.93545
      H1     9.57372   15.40217  -15.24761
       H     3.20931   11.53229  -17.01709
       O     3.98816   11.05539  -16.69345
      H1     4.45024   10.87578  -17.52846
       H     0.34404   12.46355  -16.61422
       O     0.40717   12.62701  -17.56770
      H1    -0.01115   11.82664  -17.89705
       H     3.19565   15.34853  -12.01134
       O     3.71207   15.10456  -12.76959
      H1     4.54790   14.79956  -12.40574
       H    11.62327   17.03534  -16.10631
       O    11.82376   16.58111  -16.92848
      H1    11.21640   15.84573  -16.91351
       H     7.00765   13.46232  -17.52937
       O     7.73166   13.08319  -17.03017
      H1     8.20068   12.63979  -17.74428
       H     2.32758   13.29516  -18.21797
       O     3.02243   13.49366  -18.83813
      H1     3.77421   13.68487  -18.26019
       H     8.91506   10.52192  -18.58183
       O     8.79054   11.46108  -18.83559
      H1     9.65326   11.78761  -18.55328
       H     7.45761   10.27401  -15.20376
       O     8.22885   10.74802  -15.59014
      H1     7.78883   11.34087  -16.20657
       H     6.68179   18.67536  -19.30511
       O     6.83030   18.88558  -18.38414
      H1     7.79340   18.86863  -18.29567
       H     6.32704   17.43163  -17.46162
       O     6.00139   16.59923  -17.16752
      H1     6.65196   16.33864  -16.48634
       H     6.51229    9.66698  -18.31702
       O     6.01963   10.32265  -18.87033
      H1     6.72552   10.72335  -19.45143
       H     5.88735   13.19176  -14.67929
       O     6.11084   13.89190  -14.05178
      H1     6.27759   13.44851  -13.25147
       H     7.25401   17.11380  -14.20658
       O     7.68726   16.38493  -14.68699
      H1     7.43612   15.61746  -14.14388
       H     1.56586   14.56429  -17.05064
       O     1.29944   15.39907  -16.65686
      H1     2.11687   15.81917  -16.37434
       H     6.00150   14.17600  -19.44856
       O     5.81527   14.10618  -18.50537
      H1     5.92783   15.03002  -18.20160
       H     4.38549   16.63870  -15.63265
       O     3.76640   15.90990  -15.64029
      H1     3.66013   15.68310  -14.68497
       H     5.20815    9.60802  -14.52371
       O     5.20011   10.58393  -14.44878
      H1     4.97020   10.84390  -15.35771

