60
frame 2 | Written by MDAnalysis XYZWriter (release 2.4.3)
       H     4.18670   -5.25476    3.79234
       O     4.04137   -6.07788    3.29489
      H1     4.54754   -5.88592    2.48283
       H     8.50458   -0.85387    4.75103
       O     9.21595   -0.91405    4.10676
      H1     9.91394   -1.35853    4.62890
       H     8.78222   -2.92259    7.29251
       O     9.26119   -3.18232    6.50250
      H1    10.09038   -2.70369    6.58439
       H     6.52026   -5.42789    1.11715
       O     5.73088   -5.96042    0.91811
      H1     5.17135   -5.39222    0.39230
       H    11.28409   -7.10460    4.22105
       O    11.44691   -8.07383    4.35360
      H1    10.59264   -8.46584    4.53979
       H     8.40925   -8.12394    8.95750
       O     9.11389   -8.34625    8.32000
      H1     9.35106   -7.48516    7.94626
       H    11.85464   -5.85545    1.44331
       O    11.45411   -5.00732    1.68009
      H1    11.32608   -4.56444    0.80799
       H    11.48132   -4.95294    3.44821
       O    11.62543   -5.26975    4.37840
      H1    11.54039   -4.48866    4.92100
       H     8.40128   -6.90373    5.75926
       O     7.80908   -7.65189    5.76113
      H1     8.23758   -8.30637    6.34684
       H     8.04471   -4.78486    2.64564
       O     7.51198   -4.36474    1.93392
      H1     8.12945   -4.30739    1.20183
       H     8.72739   -6.31601    3.45481
       O     8.63213   -5.58219    4.09037
      H1     9.54786   -5.34995    4.29582
       H     6.25051   -3.03587    1.92928
       O     5.52279   -2.46737    2.25692
      H1     4.96098   -2.37877    1.47581
       H     7.12340   -3.57374    4.62994
       O     6.47660   -2.93521    4.97466
      H1     6.10401   -2.68844    4.10011
       H     9.21038  -10.27841    3.51771
       O     9.35084  -10.13855    2.58196
      H1     8.78209   -9.37073    2.37312
       H     5.55873   -7.39851    3.74991
       O     6.17495   -8.13325    3.77723
      H1     6.73928   -7.82756    4.51748
       H     4.84390   -3.62089    5.57350
       O     4.21847   -4.35377    5.52597
      H1     3.81675   -4.34200    6.41023
       H     9.78666   -5.67685   -0.00899
       O     9.58215   -6.60677   -0.12914
      H1     8.88495   -6.56115   -0.78745
       H     7.57678   -7.74165    2.03779
       O     8.50072   -7.55772    2.23991
      H1     8.86880   -7.19334    1.44359
       H     4.85481   -6.21235    6.34900
       O     5.23539   -6.84496    6.96306
      H1     6.12952   -7.03101    6.61465
       H     9.61879   -4.85952    6.88722
       O     9.93956   -5.75516    6.99409
      H1    10.52541   -5.68620    7.74688

