60
frame 1 | Written by MDAnalysis XYZWriter (release 2.4.3)
       H     7.91655   -5.77063   14.04351
       O     8.77052   -5.70431   13.57725
      H1     8.49807   -5.57837   12.62785
       H     7.10840   -3.35148   13.76753
       O     6.84926   -2.61702   14.31464
      H1     6.11755   -3.06901   14.78245
       H     6.38250   -1.21390   17.16217
       O     6.54213   -0.63735   16.41145
      H1     6.81727   -1.20663   15.67467
       H     5.65808   -1.59912   11.63800
       O     6.51092   -1.80441   11.26657
      H1     7.03180   -0.98863   11.46458
       H     9.44917    1.02479   13.09795
       O    10.31711    1.30711   13.41044
      H1    10.13136    2.24267   13.62998
       H     6.49519   -3.51645   11.45618
       O     6.64880   -4.39134   11.89368
      H1     6.28671   -5.03336   11.29369
       H     5.07060    3.40273   11.16428
       O     5.60881    2.65642   11.39221
      H1     5.12563    2.18814   12.06861
       H     8.47469    0.06389    9.92891
       O     8.10336    0.79779    9.43950
      H1     7.13208    0.62885    9.48956
       H    11.56950    1.09552   12.29494
       O    12.24529    1.17524   11.61828
      H1    12.86810    0.46859   11.87362
       H     9.66071   -3.70510   11.08461
       O     9.33101   -3.00461   11.64246
      H1     8.42730   -2.95740   11.39107
       H     9.47774   -1.57968   16.04117
       O     9.96386   -0.85375   16.42749
      H1     9.57136   -0.83445   17.29315
       H     7.34685    2.96230   11.41662
       O     8.31615    3.01241   11.37529
      H1     8.53498    2.29809   10.75675
       H     4.50654    0.11534   13.31649
       O     5.39678    0.45056   13.37319
      H1     5.55043    0.50884   14.31664
       H     5.47642    1.46410   10.12146
       O     5.29558    0.73284    9.49835
      H1     4.64129    0.16823   10.00061
       H    12.30375   -3.27729   12.53740
       O    11.59630   -3.62812   13.09667
      H1    10.74200   -3.31424   12.72529
       H     8.40419   -1.22439   12.77547
       O     8.24909   -0.31559   12.50261
      H1     7.48216   -0.12423   13.01334
       H     5.91914   -1.82524    9.39438
       O     5.77001   -2.05806    8.47632
      H1     5.74196   -1.20588    8.02005
       H     7.95205   -5.89149   15.88279
       O     7.40889   -5.10863   15.80793
      H1     8.10509   -4.44563   15.79696
       H     9.48238   -4.46053   14.80626
       O     9.84982   -3.94331   15.53574
      H1    10.62818   -3.54631   15.14589
       H     9.90280   -1.77386   10.39802
       O    10.08729   -1.43804    9.50598
      H1     9.70568   -2.15400    8.96153

