60
frame 1 | Written by MDAnalysis XYZWriter (release 2.4.3)
       H    -7.58953   -4.26138   -7.00212
       O    -8.40419   -4.73020   -7.12332
      H1    -8.37382   -5.45553   -6.46673
       H    -5.60540  -10.07721   -4.29909
       O    -6.16366   -9.27890   -4.37664
      H1    -6.01278   -9.02475   -5.31235
       H    -2.17239   -8.79248   -3.26537
       O    -1.78296   -8.94348   -4.12601
      H1    -0.88679   -8.62710   -4.04414
       H    -4.29972  -12.59719   -3.63446
       O    -5.03550  -12.29748   -4.18648
      H1    -5.19633  -13.05698   -4.76110
       H    -8.05375  -12.74220   -3.60335
       O    -8.86374  -12.97313   -4.11646
      H1    -8.68537  -13.87951   -4.33860
       H    -3.14857   -6.89067   -6.27520
       O    -2.35176   -6.78571   -5.73666
      H1    -2.40704   -7.45616   -5.02377
       H    -6.02851   -5.86382   -2.88108
       O    -6.36471   -5.53118   -3.70416
      H1    -5.58102   -5.22481   -4.17969
       H    -6.55042   -7.62698  -10.66584
       O    -6.68430   -7.67617   -9.69149
      H1    -7.48554   -8.22099   -9.61273
       H    -4.93563   -7.85739   -3.48085
       O    -4.29496   -7.81401   -2.74023
      H1    -3.50864   -7.40570   -3.09064
       H    -4.10304   -6.16264   -8.14897
       O    -4.41548   -6.21058   -7.24498
      H1    -4.69110   -5.30385   -7.04980
       H    -2.54425  -11.04735   -7.37979
       O    -1.59487  -11.10418   -7.43260
      H1    -1.27189  -11.45807   -6.60010
       H   -10.47050   -9.91357   -3.96907
       O   -10.04200   -9.06325   -4.12711
      H1    -9.35144   -9.28649   -4.80826
       H    -7.68190  -10.82764   -7.70107
       O    -7.07743  -10.71364   -8.42746
      H1    -7.68315  -10.48702   -9.14619
       H    -5.95962   -7.06919   -6.93161
       O    -6.66179   -7.70568   -6.69856
      H1    -6.63720   -8.29753   -7.44827
       H    -4.17594  -10.21498   -8.49127
       O    -4.36058  -11.03774   -8.00837
      H1    -5.23114  -10.85110   -7.71083
       H    -8.66983   -9.61747   -2.29216
       O    -7.75080   -9.59813   -2.04450
      H1    -7.37372   -8.95906   -2.65542
       H   -10.32883   -8.88827   -6.85167
       O   -10.42482   -7.93030   -6.80012
      H1    -9.99095   -7.69852   -5.97116
       H    -7.77219   -7.00519   -5.41844
       O    -8.67274   -6.62602   -5.33492
      H1    -8.64731   -6.23875   -4.46513
       H    -7.46956  -10.45086   -5.21085
       O    -8.22151  -10.49830   -5.82177
      H1    -8.66151  -11.27348   -5.42388
       H    -6.15181  -12.24257   -2.71089
       O    -6.92666  -12.33705   -2.13041
      H1    -7.22194  -11.43391   -1.97282

