60
frame 2 | Written by MDAnalysis XYZWriter (release 2.4.3)
       H   -15.92634  -15.58830    8.13520
       O   -15.75652  -14.80296    8.65460
      H1   -16.63758  -14.41593    8.77754
       H   -16.05614  -11.93534   15.46847
       O   -16.26862  -12.85595   15.62312
      H1   -16.57424  -13.12216   14.73234
       H   -15.98754  -16.55772   13.12641
       O   -15.60716  -16.17736   13.93873
      H1   -14.71318  -15.94856   13.67546
       H   -17.38053  -12.59080   11.85999
       O   -17.66526  -11.89250   11.22423
      H1   -16.84049  -11.76882   10.66738
       H   -14.27579  -13.82258    6.32125
       O   -14.36273  -13.28059    7.12010
      H1   -14.72891  -13.92906    7.72221
       H   -18.92758   -8.22732    8.86005
       O   -17.97384   -8.20344    9.09512
      H1   -17.62420   -8.84348    8.46349
       H   -18.28796  -13.26427   10.16024
       O   -18.39928  -14.00166    9.53758
      H1   -18.93853  -14.63843   10.06296
       H   -16.02909  -11.37638    5.42665
       O   -15.40974  -11.20648    6.12222
      H1   -15.39567  -12.06128    6.53428
       H   -14.26498  -14.94820   10.91126
       O   -14.11976  -14.24346   11.56115
      H1   -13.24377  -13.93223   11.31829
       H   -15.40973   -8.61696    7.73873
       O   -14.84667   -8.14102    7.08419
      H1   -14.94851   -7.24115    7.40239
       H   -17.37179  -11.24583    8.25709
       O   -16.57446  -10.84520    8.66129
      H1   -15.83272  -11.22787    8.17463
       H   -16.12142  -14.32094   13.00001
       O   -17.00350  -13.97309   13.04539
      H1   -17.47321  -14.59859   13.57988
       H   -16.72112  -10.65468   12.77814
       O   -16.51026  -10.65057   13.73038
      H1   -17.26221  -10.21326   14.13250
       H   -15.20726   -7.50008   13.03143
       O   -14.90016   -7.31270   12.14349
      H1   -13.99008   -7.58475   12.21992
       H   -18.46005   -9.31920   10.92798
       O   -18.97388   -9.51578   11.73583
      H1   -18.75167  -10.39714   11.99080
       H   -14.69866   -9.20619   11.79352
       O   -14.28984   -9.97593   11.34674
      H1   -13.74667   -9.58454   10.65202
       H   -18.08599  -16.67780    9.08184
       O   -17.64655  -16.82481    8.21293
      H1   -16.71114  -17.06681    8.45623
       H   -15.30558  -10.27009   15.13180
       O   -15.07192  -10.11516   16.02880
      H1   -14.12742   -9.97354   15.95643
       H   -18.82950   -9.64883   16.24446
       O   -18.50616   -9.94655   15.37596
      H1   -18.88833  -10.82391   15.27838
       H   -13.30637  -10.64582   12.58763
       O   -12.71688  -10.95835   13.28543
      H1   -12.66988  -10.23606   13.92315

