60
frame 1 | Written by MDAnalysis XYZWriter (release 2.4.3)
       H   -17.73564    0.54961   -1.65346
       O   -17.32546   -0.10429   -2.19852
      H1   -18.04165   -0.41579   -2.75401
       H   -16.72853    4.40775    1.01141
       O   -17.06667    3.84807    1.75089
      H1   -16.79268    2.94524    1.51173
       H   -16.61840    4.90866    5.02080
       O   -16.35300    5.44621    5.77245
      H1   -16.06900    4.79730    6.43279
       H   -15.04191    5.08290   -1.01148
       O   -15.04915    4.61318   -0.19552
      H1   -14.14597    4.71643    0.15557
       H   -14.83891    4.50650    2.91511
       O   -14.16759    5.14699    3.18550
      H1   -13.38493    4.89724    2.71261
       H   -18.40976    1.93594    0.26852
       O   -19.16393    2.08306   -0.36271
      H1   -18.90087    2.79938   -0.94563
       H   -17.42226    4.13075   -2.23383
       O   -17.73367    3.33913   -2.69695
      H1   -17.85278    3.64191   -3.60086
       H   -15.97015    7.74510    2.52357
       O   -15.14979    7.43129    2.15759
      H1   -15.10127    6.57757    2.56067
       H   -14.84544    2.21978   -0.38422
       O   -14.21415    1.58353   -0.09848
      H1   -13.98768    1.81836    0.83257
       H   -15.62802    1.10609    3.61412
       O   -14.76649    0.66513    3.41841
      H1   -14.10272    1.35983    3.33517
       H   -17.69997   -1.88086    1.79220
       O   -17.51373   -2.19847    2.68527
      H1   -16.59334   -1.95312    2.88802
       H   -14.63876   -0.94279    2.41077
       O   -14.55883   -1.65535    1.76568
      H1   -14.60132   -1.14042    0.95712
       H   -15.96609    0.97881    0.38030
       O   -16.85365    1.15315    0.78845
      H1   -17.31649    0.29580    0.66336
       H   -12.07187    2.64272    3.13090
       O   -12.57258    2.47757    2.29053
      H1   -12.02449    1.84362    1.79816
       H   -19.06401    0.28714    3.45873
       O   -18.19443    0.10857    3.80391
      H1   -17.92085   -0.61436    3.20393
       H   -18.49307    5.70979   -0.65160
       O   -17.73137    5.61152   -1.26350
      H1   -17.35165    6.47441   -1.24699
       H   -14.42847   -0.44494   -1.37319
       O   -15.04437   -1.17827   -1.37514
      H1   -15.90450   -0.76911   -1.60683
       H   -11.87957    3.94688    1.63238
       O   -11.76937    4.89340    1.68767
      H1   -12.10369    5.25185    0.88501
       H   -15.88965    2.50995    5.48927
       O   -16.38962    2.61489    4.64557
      H1   -17.26388    2.37325    4.93564
       H   -15.76514    2.57023   -2.90090
       O   -15.49201    1.65736   -2.76778
      H1   -16.26366    1.13736   -3.05544

