60
frame 1 | Written by MDAnalysis XYZWriter (release 2.4.3)
       H     2.79394   18.32210   13.28954
       O     2.73029   18.38293   12.32649
      H1     2.14485   19.15380   12.19881
       H     2.51063   12.03687   13.49691
       O     2.65985   11.93535   14.44517
      H1     2.16199   12.70456   14.77173
       H     2.14727   15.70457   13.83898
       O     2.77543   15.37095   14.46570
      H1     2.15571   14.92049   15.07221
       H     2.33702   18.49447   15.35753
       O     3.18161   18.03210   15.12234
      H1     3.06618   17.13255   15.44364
       H     0.98593   17.20067   12.74178
       O     0.87247   16.28222   12.57604
      H1    -0.04095   16.07453   12.79133
       H     5.19365   16.84495   11.99416
       O     6.08718   17.20244   12.13154
      H1     6.69603   16.43464   12.04097
       H     4.98511   17.21645   17.13861
       O     5.77517   17.76137   17.07392
      H1     5.57496   18.50204   16.49202
       H    -2.08885   17.54440   14.87508
       O    -1.41030   16.98990   14.47168
      H1    -1.89379   16.44653   13.81855
       H     3.46223   16.17099   18.14705
       O     3.75390   15.89172   17.28051
      H1     4.11650   15.02102   17.43582
       H     3.11602   15.44614   11.42792
       O     4.01974   15.69002   11.34145
      H1     4.45867   15.14977   12.02851
       H     4.73588   11.68064   14.76908
       O     5.44803   12.28224   14.97589
      H1     6.20009   11.70698   14.87857
       H     0.45197   18.74555   15.95500
       O     0.65042   18.96095   16.86559
      H1     0.55702   18.14836   17.36763
       H    -1.81314   17.07484   18.28158
       O    -2.71142   17.43817   18.12276
      H1    -3.29630   16.72038   18.39074
       H    -1.55059   12.96095   17.04611
       O    -1.23847   13.86247   16.86373
      H1    -1.10600   13.83824   15.90627
       H     0.68708   16.22042   10.75088
       O     0.77266   16.03766    9.82498
      H1     0.00106   16.40430    9.40518
       H     6.15649   13.58927   16.07560
       O     6.48700   14.20880   16.75137
      H1     6.80037   14.94236   16.18268
       H     5.59438   13.80897   14.06674
       O     5.43059   14.69488   13.68671
      H1     4.57279   14.89688   14.03202
       H     2.22518   13.94559   17.10827
       O     1.62041   13.69637   16.35692
      H1     0.76989   13.82010   16.77136
       H     6.60965   16.98127   15.38661
       O     7.13482   16.25247   15.07494
      H1     6.56681   15.91927   14.35198
       H    -0.31463   15.99911   18.79748
       O     0.02803   16.88783   18.68669
      H1     0.91489   16.80551   19.06717

