60
frame 2 | Written by MDAnalysis XYZWriter (release 2.4.3)
       H     4.04350   13.38742    0.73376
       O     3.25741   13.97692    0.80263
      H1     2.91993   13.94226   -0.09726
       H     7.56031   11.20453    4.68813
       O     6.68429   11.26561    4.28452
      H1     6.82553   10.92052    3.36877
       H     8.85274   11.72081    2.67507
       O     9.80503   11.88395    2.72449
      H1    10.13350   11.27354    3.36865
       H     5.69119   17.14037    3.80288
       O     5.85928   17.87830    3.21810
      H1     5.00053   18.09262    2.81543
       H     5.81403   15.48711    1.08949
       O     6.60811   15.43560    1.62369
      H1     6.60662   16.22808    2.12819
       H     3.65576   13.78236    4.91497
       O     4.17893   14.57938    4.94779
      H1     3.52716   15.28311    4.83595
       H     5.85050   16.25679   -1.40879
       O     6.55422   16.32114   -2.07233
      H1     6.92503   17.21547   -1.93000
       H     6.39509   13.39276   -0.46331
       O     6.09622   13.25280    0.44595
      H1     6.41557   13.99618    0.93762
       H    10.36031   17.29609    0.97472
       O    10.43505   18.24863    1.13065
      H1    11.09793   18.19940    1.84159
       H     8.83579   14.55699   -0.48288
       O     8.50718   13.89572   -1.10088
      H1     8.39364   14.41041   -1.91107
       H     3.88532   15.78605    0.40394
       O     4.54755   16.36446   -0.00163
      H1     4.03277   17.03632   -0.45775
       H     9.51762   15.13589    1.54351
       O     9.81203   15.46423    0.69888
      H1    10.77220   15.31939    0.77310
       H    10.64548   13.40841    3.10622
       O    11.46339   13.93632    3.27605
      H1    12.20272   13.31926    3.14917
       H     2.68711   12.83315    1.78306
       O     2.39741   12.04836    2.28482
      H1     3.02084   11.38916    1.96870
       H     7.67491   18.34459    3.27933
       O     8.61698   18.58707    3.39940
      H1     8.97410   18.14069    2.62619
       H     7.74703   14.52459    2.94754
       O     8.65963   14.57971    3.14683
      H1     8.74208   13.92292    3.81168
       H     4.15418   18.84104   -1.17230
       O     3.33144   18.34244   -1.20313
      H1     3.33691   18.01778   -2.12310
       H     2.22002   17.09621    1.24718
       O     1.39013   16.66017    1.50068
      H1     1.10136   16.17230    0.75617
       H     2.79227   18.84857    3.10962
       O     3.28369   18.52675    2.30883
      H1     3.19572   19.29633    1.73149
       H     6.23390   10.39813    1.45456
       O     7.11077   10.82372    1.50536
      H1     7.06521   11.62118    0.95802

