60
frame 1 | Written by MDAnalysis XYZWriter (release 2.4.3)
       H    13.79707  -11.48018    7.92798
       O    13.05181  -11.02423    7.52525
      H1    12.82974  -11.54751    6.72788
       H    13.77587   -6.96807    8.03988
       O    13.64520   -6.71704    8.95754
      H1    12.97860   -7.37902    9.24207
       H    12.68641   -8.06006    5.90099
       O    13.44153   -8.52671    6.22831
      H1    13.23970   -9.48115    6.15111
       H    12.55567   -8.51428    2.13441
       O    12.93537   -8.42174    1.26421
      H1    12.18684   -8.37311    0.69518
       H    11.40432   -6.38291    5.79375
       O    11.09941   -7.30357    5.77345
      H1    10.94311   -7.53885    6.70743
       H    11.05076   -8.51712    4.22366
       O    11.49496   -9.04979    3.56384
      H1    10.77944   -9.32357    2.97494
       H    12.73363   -5.78277    4.41915
       O    12.77434   -5.16585    5.14441
      H1    13.69134   -4.91239    5.31079
       H    11.96035   -4.13614    8.33984
       O    11.61606   -5.02843    8.08118
      H1    12.36333   -5.63959    8.22705
       H    13.41307  -14.03809    5.64494
       O    13.92235  -13.71095    6.42940
      H1    14.01844  -14.54179    6.91287
       H     8.51953  -10.19781    4.88019
       O     8.80719   -9.29613    4.91610
      H1     8.64849   -9.11667    5.85164
       H    15.29178  -12.08064    9.71429
       O    14.51216  -12.56911    9.41270
      H1    14.78035  -13.30752    8.85929
       H    11.09386  -12.67832    9.40057
       O    10.66519  -12.03918    8.86728
      H1    11.42410  -11.67450    8.41220
       H    15.84472   -8.16441    3.76539
       O    15.64614   -7.40192    4.36128
      H1    14.90149   -7.72103    4.89717
       H    16.04837   -9.05981    2.10946
       O    16.20236   -9.70705    2.83088
      H1    15.59306  -10.44018    2.71018
       H     9.40306  -11.69791    6.95226
       O     9.49984  -11.85916    6.00685
      H1    10.36034  -11.39934    5.84606
       H    17.29644   -6.91170    7.00079
       O    17.13812   -6.26000    6.30953
      H1    16.41890   -6.57433    5.72037
       H    16.06141   -8.11526    9.00321
       O    16.67890   -8.47148    8.38206
      H1    16.49117   -9.41588    8.42431
       H    12.10312  -11.96395    4.38243
       O    11.86557  -11.28023    5.02685
      H1    11.55541  -10.52398    4.52349
       H    11.25499   -8.89044    9.29353
       O    11.43003   -8.45543    8.44105
      H1    12.01842   -9.02927    7.93641
       H    15.40478  -12.24584    2.46530
       O    14.67945  -11.88810    3.01284
      H1    14.04273  -11.58212    2.34641

