60
frame 1 | Written by MDAnalysis XYZWriter (release 2.4.3)
       H    -8.40733    3.25543    9.82044
       O    -8.16361    3.52737    8.91842
      H1    -8.79237    3.14681    8.32388
       H    -9.69027    6.01199    7.19195
       O    -9.29702    6.22587    6.33092
      H1    -9.15175    5.37679    5.94745
       H    -8.51483    8.23884    2.89347
       O    -8.33243    7.65455    3.63802
      H1    -8.70529    8.11897    4.39242
       H    -5.42587    2.41011    3.44552
       O    -5.71054    2.39794    2.49540
      H1    -4.92969    1.94755    2.09787
       H    -8.95742    3.25040    3.93082
       O    -8.95461    3.62489    4.80462
      H1    -8.02658    3.93385    4.88187
       H    -6.91526    8.56559    6.12435
       O    -7.14571    9.41796    5.77579
      H1    -7.20484    9.23830    4.81756
       H    -8.79468    0.82783    3.71739
       O    -9.34072    0.73304    4.51995
      H1    -8.88515    1.36469    5.13404
       H    -3.97513    3.07899    7.82766
       O    -3.69391    2.28126    7.37612
      H1    -4.34315    2.21748    6.64446
       H    -2.77930    4.73619    5.13030
       O    -3.41929    5.20688    4.60911
      H1    -3.09984    6.10947    4.62290
       H    -7.52577    6.86699    7.22118
       O    -6.58470    6.73572    7.25251
      H1    -6.32615    6.85444    8.19023
       H    -1.00718    2.91009    5.73100
       O    -1.63574    3.55295    6.01151
      H1    -2.24925    2.97251    6.47464
       H    -3.63152    6.96235    7.31368
       O    -3.24525    6.24663    7.85616
      H1    -3.12676    6.68559    8.71794
       H    -2.59998    2.86514    2.42360
       O    -2.80529    3.71657    2.08076
      H1    -3.00563    4.24240    2.86608
       H    -4.79410    4.87840    8.39165
       O    -5.23702    4.11947    8.76514
      H1    -6.08354    4.15264    8.33933
       H    -4.88960    8.84117    3.07693
       O    -4.51709    8.14248    3.62281
      H1    -3.55316    8.32635    3.63599
       H    -4.32547    8.25109    5.31516
       O    -4.11443    8.34251    6.26878
      H1    -3.16976    8.53100    6.29076
       H    -4.60567    0.99966    4.56027
       O    -5.13428    1.69698    4.99385
      H1    -5.85851    1.26373    5.49194
       H    -6.09236    4.09390    2.56194
       O    -6.03558    5.05564    2.45910
      H1    -5.27556    5.29454    3.00368
       H    -6.46349    5.31543    6.28899
       O    -6.18951    4.63928    5.63549
      H1    -5.49424    5.06385    5.11172
       H    -7.00604   -0.15885    6.78414
       O    -7.37588    0.66911    6.50650
      H1    -7.00458    1.31390    7.14893

