60
frame 1 | Written by MDAnalysis XYZWriter (release 2.4.3)
       H    -4.44043   -2.08628   13.99108
       O    -4.36774   -1.27119   13.48126
      H1    -5.30298   -1.10103   13.28938
       H    -7.28861   -2.03390   14.46861
       O    -7.41657   -1.88370   13.52859
      H1    -8.20341   -1.30962   13.46090
       H    -4.40070   -0.58886   15.41194
       O    -4.34285   -0.19911   16.29950
      H1    -5.22467   -0.38745   16.61847
       H   -10.74260    0.07052   13.60123
       O   -10.23441   -0.66603   13.94069
      H1   -10.28133   -1.35333   13.26153
       H    -8.97840   -5.77240   18.70602
       O    -8.79228   -5.82043   17.75497
      H1    -8.71008   -6.75732   17.63582
       H    -6.31104    0.95452   18.25713
       O    -7.00401    1.25215   17.64328
      H1    -6.58395    1.95180   17.11137
       H    -9.27073   -4.73529   13.99222
       O    -9.66688   -4.52169   14.82539
      H1    -9.31341   -5.20123   15.42306
       H    -5.22422   -4.00485   11.89069
       O    -5.90193   -3.35582   11.59769
      H1    -6.35295   -3.21217   12.43847
       H    -6.65894    1.86750   15.44044
       O    -6.58382    2.81268   15.61731
      H1    -5.78759    3.11677   15.14859
       H    -7.25419   -1.65967   16.98930
       O    -6.84259   -1.18685   16.24297
      H1    -7.15277   -0.30310   16.41734
       H    -7.00038   -0.67204   11.04951
       O    -7.19639    0.25842   10.96069
      H1    -6.49891    0.57633   10.39189
       H    -3.43395    2.63702   17.07026
       O    -2.79408    1.91513   16.95947
      H1    -3.32825    1.17847   16.59200
       H    -9.95691    0.82476   18.23131
       O    -9.69942    1.59903   17.69316
      H1    -8.75445    1.49431   17.50826
       H    -2.84650    0.53530   14.38079
       O    -2.95893    1.30518   13.83825
      H1    -2.11989    1.78017   13.93238
       H    -5.53681   -4.90995   17.81029
       O    -6.40040   -4.53386   18.04144
      H1    -7.01323   -5.21401   17.68933
       H   -10.72595   -1.52032   15.56793
       O   -10.79965   -1.96806   16.38562
      H1   -11.20677   -2.83904   16.19539
       H    -2.60171   -1.73721   16.87709
       O    -2.33559   -2.59705   17.21671
      H1    -1.43145   -2.67316   16.90657
       H    -7.84344    2.18840   13.48624
       O    -8.02487    1.23793   13.35015
      H1    -7.70689    1.07153   12.44984
       H    -4.22277   -4.64100   14.88743
       O    -3.86741   -3.79767   14.59294
      H1    -3.18736   -3.57545   15.23906
       H    -8.46918   -3.10042   18.50069
       O    -8.77603   -2.22359   18.24308
      H1    -9.42239   -2.43819   17.56416

