60
frame 1 | Written by MDAnalysis XYZWriter (release 2.4.3)
       H    -0.40438    1.77424    3.67203
       O    -0.00107    1.95602    4.50978
      H1     0.84853    2.36886    4.23512
       H    -1.91842    0.54367    1.80440
       O    -1.94400    1.09286    2.57193
      H1    -2.52534    0.55765    3.13930
       H    -0.81433    4.72015    4.64526
       O    -0.34776    5.57702    4.75277
      H1    -0.84032    6.15966    4.17935
       H     0.08042    5.67465    9.01002
       O    -0.00754    4.76103    8.68556
      H1    -0.81479    4.74454    8.14724
       H    -0.91156    7.65712    5.92674
       O    -1.54161    7.91386    6.61946
      H1    -1.90390    7.03715    6.83541
       H    -5.42587    2.41011    3.44552
       O    -5.71054    2.39794    2.49540
      H1    -4.92969    1.94755    2.09787
       H    -3.97513    3.07899    7.82766
       O    -3.69391    2.28126    7.37612
      H1    -4.34315    2.21748    6.64446
       H    -2.77930    4.73619    5.13030
       O    -3.41929    5.20688    4.60911
      H1    -3.09984    6.10947    4.62290
       H    -1.00718    2.91009    5.73100
       O    -1.63574    3.55295    6.01151
      H1    -2.24925    2.97251    6.47464
       H    -3.63152    6.96235    7.31368
       O    -3.24525    6.24663    7.85616
      H1    -3.12676    6.68559    8.71794
       H    -0.39141    3.99212    1.89100
       O     0.54851    4.26910    1.93128
      H1     1.00770    3.50091    1.54231
       H    -2.59998    2.86514    2.42360
       O    -2.80529    3.71657    2.08076
      H1    -3.00563    4.24240    2.86608
       H    -4.79410    4.87840    8.39165
       O    -5.23702    4.11947    8.76514
      H1    -6.08354    4.15264    8.33933
       H    -4.88960    8.84117    3.07693
       O    -4.51709    8.14248    3.62281
      H1    -3.55316    8.32635    3.63599
       H    -4.32547    8.25109    5.31516
       O    -4.11443    8.34251    6.26878
      H1    -3.16976    8.53100    6.29076
       H    -2.23549    7.29501    2.56756
       O    -1.96878    7.17350    3.48264
      H1    -1.36750    7.94419    3.65931
       H     1.05664    6.04572    6.35792
       O     1.99847    6.15476    6.59534
      H1     2.25280    5.35830    7.00959
       H    -4.60567    0.99966    4.56027
       O    -5.13428    1.69698    4.99385
      H1    -5.85851    1.26373    5.49194
       H    -6.09236    4.09390    2.56194
       O    -6.03558    5.05564    2.45910
      H1    -5.27556    5.29454    3.00368
       H    -6.46349    5.31543    6.28899
       O    -6.18951    4.63928    5.63549
      H1    -5.49424    5.06385    5.11172

