60
frame 1 | Written by MDAnalysis XYZWriter (release 2.4.3)
       H     1.43676    1.28986    0.64124
       O     1.40886    2.19848    0.27601
      H1     0.75285    2.13717   -0.44821
       H    -1.91842    0.54367    1.80440
       O    -1.94400    1.09286    2.57193
      H1    -2.52534    0.55765    3.13930
       H    -3.78060    1.94864   -2.84590
       O    -3.06626    2.45349   -3.24479
      H1    -2.80025    3.09887   -2.57768
       H    -0.37016    7.29293   -1.21716
       O    -0.18459    6.66483   -0.50896
      H1     0.55109    6.13171   -0.80725
       H    -5.19226    5.48093   -0.24316
       O    -4.89196    4.56347   -0.29653
      H1    -5.11139    4.14627    0.53989
       H    -5.42587    2.41011    3.44552
       O    -5.71054    2.39794    2.49540
      H1    -4.92969    1.94755    2.09787
       H    -1.51684    3.76103   -1.15593
       O    -2.39588    4.20977   -1.24077
      H1    -2.80363    4.12693   -0.36173
       H    -0.39141    3.99212    1.89100
       O     0.54851    4.26910    1.93128
      H1     1.00770    3.50091    1.54231
       H    -2.59998    2.86514    2.42360
       O    -2.80529    3.71657    2.08076
      H1    -3.00563    4.24240    2.86608
       H    -2.51307    5.80228   -3.26991
       O    -3.40901    5.76926   -2.93580
      H1    -3.34088    5.24039   -2.14644
       H    -4.35423   -0.28391   -2.00483
       O    -4.77612    0.56706   -1.81733
      H1    -5.68799    0.42100   -2.13500
       H    -5.88450    3.33641   -4.93476
       O    -6.01556    4.00680   -4.24289
      H1    -5.10098    4.32433   -4.12766
       H    -2.23549    7.29501    2.56756
       O    -1.96878    7.17350    3.48264
      H1    -1.36750    7.94419    3.65931
       H    -2.66635    8.49933    0.57741
       O    -2.87971    7.63581    0.91259
      H1    -2.29745    7.10463    0.34285
       H    -4.36550    0.78961   -0.14906
       O    -3.96813    0.69321    0.72370
      H1    -4.69220    0.42394    1.26520
       H    -5.96108    6.53206    1.23107
       O    -5.54042    7.06755    0.52486
      H1    -4.60496    7.14885    0.81268
       H    -6.37872    3.67373   -2.63396
       O    -6.74307    3.39406   -1.76924
      H1    -6.07634    3.82911   -1.18623
       H    -6.09236    4.09390    2.56194
       O    -6.03558    5.05564    2.45910
      H1    -5.27556    5.29454    3.00368
       H     0.29511    5.27801   -3.04576
       O    -0.46374    5.65946   -3.50278
      H1    -0.48660    5.20459   -4.34241
       H    -0.53310    1.47518   -2.08201
       O    -0.50079    2.40189   -1.79541
      H1     0.06733    2.80321   -2.46495

