60
frame 1 | Written by MDAnalysis XYZWriter (release 2.4.3)
       H     4.85751    6.51360   14.28983
       O     4.21563    5.81638   14.29838
      H1     4.77165    5.02392   14.19074
       H     2.45725    2.98143    7.45963
       O     2.48147    3.77662    8.02239
      H1     1.62071    3.83823    8.43922
       H     0.08042    5.67465    9.01002
       O    -0.00754    4.76103    8.68556
      H1    -0.81479    4.74454    8.14724
       H     3.74564    8.61705   11.41851
       O     3.95955    9.32881   10.82988
      H1     3.13325    9.48401   10.36211
       H     5.15157    8.15244   15.72089
       O     5.72134    8.08121   14.94416
      H1     6.55007    8.45605   15.23059
       H     5.76190    6.82926    9.42578
       O     5.47173    7.68702    9.08327
      H1     5.11345    8.15929    9.83801
       H     3.55677    6.69591   12.74422
       O     3.19016    7.08933   11.95780
      H1     3.29322    6.39053   11.32057
       H     5.07060    3.40273   11.16428
       O     5.60881    2.65642   11.39221
      H1     5.12563    2.18814   12.06861
       H    -0.45234    7.84752    8.11830
       O    -0.10466    7.52844    8.94937
      H1     0.72851    8.00064    9.05205
       H     2.81119    7.07723    7.90628
       O     2.88713    7.79475    8.52892
      H1     3.75681    7.61965    8.84895
       H     0.86531    2.14291   11.24441
       O     1.80266    2.02555   11.19371
      H1     2.05730    2.84524   11.60671
       H     3.61904    4.51859    9.23029
       O     4.00643    5.10469    9.90619
      H1     4.95600    5.00430    9.76322
       H    -0.26370    7.67677   13.20952
       O     0.50295    7.11709   13.35444
      H1     1.04174    7.30231   12.55232
       H     2.63535    7.84578   16.09781
       O     2.58536    6.90648   16.09101
      H1     3.07853    6.63347   15.30350
       H     4.01821    3.14612   14.27057
       O     3.24124    2.81865   13.79452
      H1     2.73931    3.64417   13.73463
       H     0.12893    4.30398   11.97738
       O     0.85552    4.47917   12.58292
      H1     0.74753    5.39798   12.82519
       H     6.92479    8.15064   12.15081
       O     7.43370    7.72642   11.48430
      H1     7.69204    8.47204   10.90624
       H     1.53202   10.31935    9.00414
       O     1.26947    9.95490    9.88977
      H1     0.40702   10.36719   10.08616
       H     7.05948    5.58359   10.81637
       O     6.63331    5.12922   10.06280
      H1     7.36157    5.09048    9.41506
       H     1.05664    6.04572    6.35792
       O     1.99847    6.15476    6.59534
      H1     2.25280    5.35830    7.00959

