60
frame 1 | Written by MDAnalysis XYZWriter (release 2.4.3)
       H     3.56117  -11.51300  -18.37174
       O     3.95966  -11.27789  -17.53195
      H1     3.36763  -11.64596  -16.86904
       H     2.55154  -13.82314  -15.65533
       O     2.11341  -14.58001  -16.07728
      H1     2.04694  -14.37490  -17.02099
       H    -1.31009  -14.68786  -16.83995
       O    -1.46309  -15.61366  -17.10207
      H1    -0.86568  -15.73968  -17.85057
       H     7.44414  -18.50314  -12.77083
       O     6.80841  -18.91443  -13.38352
      H1     6.01044  -18.49097  -13.06549
       H     1.27245  -15.77005  -15.07293
       O     0.96345  -16.33254  -14.33975
      H1     0.21819  -16.83681  -14.73275
       H     9.07750  -15.24816  -16.89545
       O     8.97839  -16.18314  -17.15230
      H1     8.28897  -16.59023  -16.60979
       H     1.41625  -14.90435  -18.79091
       O     1.85588  -14.06441  -18.61291
      H1     1.24536  -13.36903  -18.91244
       H     1.75013  -18.55420  -15.98958
       O     1.53699  -18.50327  -16.94526
      H1     0.56912  -18.65714  -16.99074
       H    -0.43803  -18.15691  -18.90695
       O    -1.04538  -18.57935  -18.28953
      H1    -0.80427  -19.49929  -18.32938
       H     6.47080  -18.01804  -15.42556
       O     6.70335  -17.11125  -15.78096
      H1     6.01484  -16.95720  -16.43940
       H     1.85297  -18.00504  -14.25330
       O     2.36995  -18.79317  -14.51409
      H1     3.23381  -18.62363  -14.12279
       H     9.06778  -12.38015  -15.26282
       O     8.14714  -12.20629  -15.00793
      H1     7.66256  -12.89850  -15.46266
       H     9.98168  -17.08833  -15.65433
       O     9.95438  -17.07047  -14.67768
      H1    10.62280  -17.76602  -14.49961
       H     5.55262  -14.85886  -14.36561
       O     4.79314  -15.19189  -13.85240
      H1     4.89807  -16.14350  -13.77986
       H     6.38805  -14.07994  -16.54998
       O     6.62518  -14.32676  -15.64261
      H1     6.60017  -15.28768  -15.62375
       H     1.88523  -15.63793  -12.71558
       O     2.17735  -15.15848  -11.93056
      H1     2.05720  -14.21106  -12.16550
       H     4.51334  -16.17609  -17.94559
       O     4.56464  -16.63443  -17.09539
      H1     3.76440  -16.34136  -16.63936
       H     3.74837  -13.07146  -14.16272
       O     3.80296  -12.84837  -15.10757
      H1     4.66252  -13.21583  -15.38226
       H     5.48734  -12.38822  -17.76226
       O     6.20741  -12.99902  -17.95756
      H1     6.92810  -12.46349  -18.30965
       H     3.70010  -18.33945  -11.93914
       O     3.89586  -17.63357  -12.56064
      H1     4.41532  -16.99587  -12.05492

