60
frame 1 | Written by MDAnalysis XYZWriter (release 2.4.3)
       H   -11.29017  -13.47252   -6.48255
       O   -11.53067  -12.57828   -6.25693
      H1   -12.46466  -12.67778   -6.05063
       H   -10.42760  -17.08669   -4.84726
       O   -10.59488  -17.72285   -5.54412
      H1   -11.13675  -17.17424   -6.15505
       H    -8.05375  -12.74220   -3.60335
       O    -8.86374  -12.97313   -4.11646
      H1    -8.68537  -13.87951   -4.33860
       H   -11.56487  -16.49793   -3.03213
       O   -10.61734  -16.23093   -3.06133
      H1   -10.66803  -15.29858   -2.86684
       H    -9.79703  -12.40218    1.57518
       O   -10.59547  -12.92843    1.49536
      H1   -10.39029  -13.40659    0.69683
       H    -6.74512  -18.81709   -4.31541
       O    -6.49563  -18.25810   -3.56426
      H1    -5.79621  -17.68597   -3.85274
       H    -8.79442  -16.09464   -3.15225
       O    -7.88178  -15.75769   -3.17724
      H1    -7.41614  -16.50662   -3.52370
       H   -11.20064  -12.96876   -3.09960
       O   -11.20200  -13.61751   -2.38519
      H1   -12.10662  -13.62250   -2.09085
       H    -4.67365  -16.59328   -2.55011
       O    -4.45136  -16.54546   -3.48620
      H1    -4.06242  -17.39356   -3.69214
       H    -8.01184  -15.85849   -6.95591
       O    -8.04670  -14.98343   -6.58245
      H1    -8.19229  -14.43553   -7.34146
       H    -5.31894  -15.28389   -5.60303
       O    -5.45161  -14.38438   -5.92928
      H1    -6.28680  -14.40319   -6.40143
       H    -8.18030  -15.29607    0.18274
       O    -7.43232  -15.15387   -0.41123
      H1    -7.82767  -15.21701   -1.27786
       H   -11.26971  -15.05587   -5.77095
       O   -10.80843  -15.11840   -6.63430
      H1    -9.90429  -14.88090   -6.39447
       H   -13.13868  -14.47957   -4.04235
       O   -12.80223  -15.20634   -4.57299
      H1   -13.56000  -15.59033   -5.01548
       H   -13.17784  -17.12593   -1.51557
       O   -13.19219  -17.35605   -2.44913
      H1   -13.91872  -16.80156   -2.75334
       H    -4.20218  -15.02182   -0.58196
       O    -4.50751  -15.80977   -0.97883
      H1    -5.44010  -15.78362   -0.80360
       H    -9.89146  -16.74019    0.64046
       O    -9.78560  -15.81221    0.82546
      H1   -10.01689  -15.65363    1.74158
       H    -9.25996  -18.34489   -0.93366
       O   -10.12099  -17.95900   -0.67216
      H1   -10.39195  -17.55358   -1.49634
       H    -6.15181  -12.24257   -2.71089
       O    -6.92666  -12.33705   -2.13041
      H1    -7.22194  -11.43391   -1.97282
       H    -8.46692  -12.59799   -1.23238
       O    -9.28424  -12.33451   -0.81371
      H1    -9.95847  -12.72131   -1.39386

