60
frame 2 | Written by MDAnalysis XYZWriter (release 2.4.3)
       H    -4.78584   18.16175    1.83196
       O    -4.72380   17.37636    2.43676
      H1    -4.44068   17.70782    3.28252
       H     0.10983   17.94786    1.28433
       O    -0.78046   18.30247    1.30084
      H1    -0.62461   19.14007    0.87353
       H    -6.75586   14.94380   -2.55580
       O    -6.01462   14.31272   -2.46468
      H1    -5.26534   14.89512   -2.66816
       H    -5.17307   18.11555   -2.21518
       O    -5.82407   17.82210   -1.60004
      H1    -5.52103   18.31657   -0.82781
       H     1.08160   18.78985   -2.16796
       O     0.47420   18.22527   -2.63029
      H1    -0.38089   18.34720   -2.20515
       H    -3.47367   15.39637   -0.53022
       O    -3.53031   15.73590   -1.41265
      H1    -4.17216   16.44277   -1.31618
       H    -0.95906   12.84655    0.82884
       O    -1.46957   13.26090    0.12992
      H1    -2.31770   13.16180    0.49136
       H     0.53686   17.31280   -4.42499
       O     0.97906   16.91205   -5.19516
      H1     0.48969   17.22641   -5.96425
       H    -3.54692   16.20531    1.80325
       O    -2.89794   15.78873    1.23384
      H1    -2.26915   15.37518    1.83417
       H    -0.32534   15.34513    3.70946
       O    -1.08242   14.85338    3.36851
      H1    -1.57003   14.58074    4.17993
       H     0.57160   14.56631   -3.86909
       O     1.19449   14.57202   -3.14733
      H1     1.62753   15.43660   -3.20434
       H    -1.37442   13.26318   -3.22188
       O    -1.32760   12.65580   -2.45746
      H1    -1.31613   13.23058   -1.70236
       H    -1.78885   17.88056    4.24437
       O    -1.99922   18.71162    3.76610
      H1    -1.65367   18.51263    2.88671
       H    -3.23571   18.57529   -3.67055
       O    -3.92882   17.91909   -3.70965
      H1    -3.74073   17.43090   -4.49891
       H    -1.47806   14.18223   -5.52153
       O    -1.53821   14.64542   -4.66217
      H1    -1.66433   15.54489   -4.96853
       H    -0.25951   14.61617   -0.20805
       O     0.22419   15.43654   -0.45841
      H1     0.30087   15.31942   -1.42860
       H     1.45472   16.16957    3.11817
       O     1.58088   15.95759    4.06854
      H1     1.89621   16.77244    4.41954
       H     4.15418   18.84104   -1.17230
       O     3.33144   18.34244   -1.20313
      H1     3.33691   18.01778   -2.12310
       H     2.22002   17.09621    1.24718
       O     1.39013   16.66017    1.50068
      H1     1.10136   16.17230    0.75617
       H    -1.52135   17.72602   -0.39836
       O    -1.81857   17.75130   -1.33365
      H1    -2.24321   16.89388   -1.43783

