60
frame 1 | Written by MDAnalysis XYZWriter (release 2.4.3)
       H    -9.15076   -4.58448  -14.24839
       O    -8.28545   -4.77600  -14.58517
      H1    -7.63218   -4.58859  -13.89239
       H    -9.25825    1.16522  -12.12216
       O    -8.44378    1.32105  -11.63060
      H1    -7.74743    1.00682  -12.20877
       H    -8.98100   -1.98596  -11.05727
       O    -8.12011   -2.05775  -11.50582
      H1    -7.57546   -2.27227  -10.74510
       H   -10.47096    0.81572  -10.51212
       O   -11.08759    0.68410  -11.24618
      H1   -11.78188    1.28369  -11.03547
       H   -11.60201   -3.64581   -7.77250
       O   -10.79113   -3.12899   -7.77256
      H1   -10.09221   -3.70817   -7.43897
       H   -10.52533   -0.67255  -15.09824
       O   -11.05432   -0.79277  -15.90161
      H1   -11.68130   -0.06339  -15.89243
       H   -10.95705   -0.93221  -10.65758
       O   -10.70864   -1.87270  -10.50454
      H1   -10.92209   -1.99516   -9.57112
       H   -12.04661   -3.44941  -15.27174
       O   -12.30628   -3.14370  -16.13693
      H1   -11.86206   -2.27547  -16.18826
       H   -13.84638   -3.29400   -6.81022
       O   -13.70996   -3.80701   -7.61225
      H1   -13.76549   -3.12883   -8.29519
       H   -13.51619   -2.06219  -10.76585
       O   -13.96442   -2.17457   -9.89366
      H1   -14.12349   -1.24301   -9.66190
       H   -12.02025   -2.17588  -12.21642
       O   -12.88528   -1.74366  -12.32382
      H1   -13.28835   -2.12880  -13.11294
       H   -10.43103   -3.83782  -11.07541
       O   -10.16071   -4.67314  -11.47165
      H1    -9.50612   -5.02482  -10.84727
       H   -10.90162   -6.45902   -7.98537
       O   -11.40583   -6.25760   -8.78954
      H1   -10.89646   -5.59099   -9.24655
       H   -13.08689    0.49668  -12.72244
       O   -13.68540    1.00921  -12.15019
      H1   -13.98612    1.65360  -12.79529
       H   -10.48228    0.20994  -13.14441
       O    -9.90911   -0.46214  -13.47577
      H1    -9.16942   -0.47301  -12.85753
       H   -14.84782   -3.75258  -13.86945
       O   -14.36760   -2.95274  -14.09845
      H1   -14.00491   -3.14821  -14.97836
       H   -15.70890   -1.62860  -10.29419
       O   -16.51695   -1.32331  -10.64092
      H1   -16.46003   -1.66595  -11.55559
       H   -13.47336    1.70296  -15.07779
       O   -12.59670    1.35635  -15.25030
      H1   -11.98612    2.03407  -14.93514
       H   -10.67718   -2.55590  -13.93879
       O   -10.73497   -3.52227  -13.89736
      H1   -10.46358   -3.76949  -13.01116
       H   -16.02437   -2.01954  -13.94047
       O   -16.68996   -1.52800  -13.43237
      H1   -17.36153   -2.22258  -13.22833

