60
frame 2 | Written by MDAnalysis XYZWriter (release 2.4.3)
       H     0.79612    4.70523    2.86282
       O     1.74581    4.92552    2.89511
      H1     1.88740    5.15869    3.81834
       H    -2.32757    0.48633    3.14820
       O    -2.36916    0.46748    4.09174
      H1    -3.27214    0.76569    4.36641
       H    -3.53141    3.03994   -3.42755
       O    -2.73984    3.32355   -3.88790
      H1    -2.04787    3.26999   -3.20502
       H    -0.78042    3.24108    2.93651
       O    -0.47073    3.48870    2.03524
      H1    -1.18024    4.04189    1.68967
       H    -0.97253    6.41390   -1.46513
       O    -0.68016    5.83620   -0.75485
      H1    -0.84730    4.95665   -1.06499
       H    -4.66401    6.46275   -0.63327
       O    -4.61017    5.61222   -1.06142
      H1    -4.08114    5.10676   -0.47092
       H    -5.10448    3.50807    3.41700
       O    -5.08693    3.89114    2.53227
      H1    -5.04383    3.12436    1.95712
       H    -0.92929    1.96748   -0.98687
       O    -1.42809    2.74710   -1.34794
      H1    -1.92529    3.04676   -0.57861
       H    -0.79280    2.24665    5.48116
       O    -1.34849    2.77376    4.89887
      H1    -1.94582    2.07991    4.52836
       H     0.93998    3.54433    0.86097
       O     1.57540    3.75738    0.18814
      H1     1.83688    2.91419   -0.14494
       H    -2.75636    3.16600    1.25993
       O    -2.89869    3.99361    0.80412
      H1    -3.74149    4.26363    1.16234
       H    -2.41673   -0.60891    0.73086
       O    -2.35977    0.30491    1.00599
      H1    -3.27255    0.63136    0.88642
       H    -4.23136    0.88380   -1.89400
       O    -4.48682    1.80704   -1.86535
      H1    -5.42486    1.73131   -2.12523
       H    -2.27902    5.76074    2.51181
       O    -2.13155    5.41518    3.38763
      H1    -1.41301    5.99260    3.73991
       H    -2.00900    8.20367    0.89094
       O    -2.10491    7.27769    1.06481
      H1    -1.51183    6.86533    0.37527
       H    -4.66466    1.70121    0.02280
       O    -4.72630    1.64568    1.00453
      H1    -5.58404    1.20204    1.07303
       H    -5.65424    1.32868    4.38670
       O    -5.36575    2.17918    4.66775
      H1    -5.82737    2.30415    5.49099
       H    -5.23972    5.78559    2.74556
       O    -5.10707    6.72791    2.89917
      H1    -5.91535    6.93244    3.38147
       H    -3.48736    5.77260   -2.39668
       O    -2.99684    5.95422   -3.20843
      H1    -2.98407    5.07881   -3.62094
       H    -1.00385    0.08965   -0.35733
       O    -0.30010   -0.05723   -0.96000
      H1    -0.68022   -0.62586   -1.63001

