60
frame 1 | Written by MDAnalysis XYZWriter (release 2.4.3)
       H    -4.85996  -12.62036  -10.61885
       O    -5.43295  -11.84471  -10.42642
      H1    -5.09999  -11.54881   -9.60755
       H    -9.25185  -14.73391  -15.94346
       O    -9.58867  -14.53496  -15.06423
      H1   -10.04474  -15.35715  -14.78102
       H    -3.96383  -15.24313   -9.31208
       O    -4.13176  -16.00436   -9.87391
      H1    -3.24902  -16.24720  -10.12678
       H    -7.42981  -15.24325  -10.00684
       O    -7.55372  -16.17781  -10.23704
      H1    -6.95671  -16.27765  -10.97783
       H    -8.34055  -17.77671  -11.08784
       O    -8.31584  -18.67761  -11.49569
      H1    -7.42401  -19.02244  -11.25152
       H   -10.48464  -16.43114  -10.06139
       O   -10.20577  -16.09513  -10.92084
      H1    -9.26488  -16.02648  -10.71910
       H    -6.04689  -17.21846  -13.17307
       O    -5.91619  -16.64925  -12.40289
      H1    -5.17378  -17.04300  -11.95211
       H    -7.13522  -12.88956   -9.48105
       O    -7.70979  -13.58855   -9.10360
      H1    -8.59096  -13.46466   -9.45304
       H    -2.51316  -15.52160  -13.46770
       O    -3.46724  -15.62308  -13.66501
      H1    -3.64824  -16.51343  -13.47423
       H    -6.54667  -11.29160  -12.68868
       O    -7.24320  -11.68709  -13.23941
      H1    -7.21324  -12.63174  -13.06503
       H   -10.74777  -16.42639  -12.51754
       O   -11.18731  -16.50087  -13.36200
      H1   -10.98791  -17.41632  -13.63061
       H   -10.14227  -11.97401  -11.83190
       O    -9.80391  -11.23683  -12.37959
      H1    -8.89207  -11.47244  -12.60073
       H    -3.83848  -13.65873  -13.81154
       O    -4.49970  -12.96965  -13.82937
      H1    -4.08217  -12.13688  -14.13379
       H    -8.00277  -18.03457  -14.57590
       O    -7.13106  -17.62539  -14.62903
      H1    -6.85463  -17.79517  -15.51233
       H   -10.46031  -14.20856  -10.54587
       O   -10.49917  -13.24297  -10.30155
      H1   -11.18470  -13.18382   -9.61201
       H    -8.18583  -14.72001  -13.83047
       O    -7.82024  -14.70278  -12.95708
      H1    -7.27226  -15.50117  -12.93074
       H    -4.90692  -16.25861  -15.39511
       O    -5.06644  -16.43869  -16.33130
      H1    -5.08195  -15.56891  -16.69824
       H    -3.73403  -14.50495  -11.20142
       O    -3.55413  -13.56440  -11.21738
      H1    -3.81483  -13.38013  -12.13041
       H    -5.19784  -13.41192  -17.05338
       O    -5.82843  -13.55774  -16.35939
      H1    -5.40060  -13.25305  -15.56255
       H    -8.85664  -11.54988  -14.54469
       O    -9.63829  -11.70950  -15.07490
      H1    -9.78440  -12.65636  -14.90649

