60
frame 1 | Written by MDAnalysis XYZWriter (release 2.4.3)
       H     7.48263    7.96967  -14.49491
       O     7.87717    7.51531  -15.25864
      H1     8.71046    7.13811  -14.90601
       H     8.93571    0.49770  -19.19902
       O     9.30416   -0.31175  -18.80144
      H1    10.14148   -0.01343  -18.38482
       H    10.82224    2.06985  -12.80405
       O    11.62383    2.46602  -13.16138
      H1    12.36728    1.90859  -12.82479
       H    12.40900    1.55069  -17.52463
       O    12.37395    0.66172  -17.82498
      H1    11.79877    0.17599  -17.21612
       H    10.42968    0.96761  -15.67128
       O    10.50317    0.09253  -16.11319
      H1    11.29689   -0.26386  -15.71400
       H     8.52709    0.22648  -16.84053
       O     7.65790    0.47913  -16.53485
      H1     7.67268    0.23827  -15.60511
       H     8.64644    4.40094  -17.34153
       O     8.20617    3.56072  -17.37185
      H1     8.56558    3.18983  -18.19142
       H     9.26937    5.62276  -11.72045
       O     9.24700    5.95777  -12.63694
      H1     8.71176    5.32335  -13.13570
       H     6.65021    3.99494  -13.41343
       O     6.20606    4.67335  -13.92641
      H1     5.92649    4.15303  -14.68995
       H    10.49029    7.02945  -13.70118
       O    10.50844    7.19061  -14.66667
      H1    10.53630    8.14052  -14.71430
       H    12.71331    3.38749  -18.63014
       O    12.94962    3.25653  -17.70362
      H1    12.46449    3.92397  -17.22671
       H    13.30610   -0.41772  -14.03055
       O    12.48900   -0.93040  -14.21277
      H1    12.10589   -1.02438  -13.33850
       H     7.82542    2.48646  -13.28224
       O     8.12023    3.27771  -12.79493
      H1     8.09925    2.96029  -11.85720
       H     6.29642    3.29775  -16.91404
       O     5.72649    3.00337  -16.17468
      H1     6.21256    2.35650  -15.64434
       H     9.52108   -1.10736  -15.46166
       O     8.80679   -1.61645  -15.04989
      H1     8.98687   -1.53309  -14.11155
       H     9.13405    2.91223  -16.01345
       O     9.76676    2.64486  -15.32965
      H1     9.35198    2.99393  -14.53749
       H     9.36877    0.16119  -11.67082
       O    10.12543    0.68266  -11.35809
      H1    10.83722    0.08130  -11.52970
       H    12.55449    4.57351  -15.11742
       O    11.82033    4.46467  -15.74748
      H1    11.44843    3.61302  -15.53927
       H     8.72509    6.62751  -16.60873
       O     9.41523    6.24223  -17.19431
      H1    10.13116    6.10062  -16.57321
       H     5.05244    1.02509  -13.83990
       O     5.73749    1.58645  -13.47264
      H1     6.01684    1.05612  -12.69413

