60
frame 1 | Written by MDAnalysis XYZWriter (release 2.4.3)
       H    -8.55458   17.68563   -4.95314
       O    -8.50582   18.43601   -5.58513
      H1    -9.30015   18.91991   -5.37815
       H    -8.34692   14.18732   -0.32759
       O    -8.48052   13.23216   -0.24680
      H1    -8.03470   12.92303    0.55700
       H   -13.93397   18.68252   -2.28821
       O   -14.24768   17.80045   -2.03323
      H1   -13.50924   17.46947   -1.49057
       H   -11.11487   13.47149   -2.66144
       O   -11.27030   13.79857   -3.57819
      H1   -11.75547   14.64505   -3.49300
       H    -7.95781   16.77376   -1.03849
       O    -7.98168   15.90992   -0.64465
      H1    -7.81313   16.10817    0.27743
       H   -10.59371   17.85557    2.32747
       O   -10.13342   17.01675    2.50109
      H1   -10.72254   16.40276    2.05909
       H    -9.75885   15.59951   -1.11086
       O   -10.43156   15.76574   -1.76489
      H1   -11.26993   15.46153   -1.33681
       H   -14.56602   14.64666    2.35915
       O   -14.91465   14.35001    1.52314
      H1   -15.43342   13.57171    1.75033
       H    -7.25305   18.67695   -1.96498
       O    -7.82452   18.52520   -1.21612
      H1    -7.23609   18.51424   -0.43407
       H   -12.66214   16.81564    1.20492
       O   -12.97794   16.57842    2.07759
      H1   -13.06919   17.40508    2.54685
       H   -10.25541   17.05777    4.32900
       O   -10.25074   17.15136    5.28539
      H1   -11.02051   17.75730    5.41402
       H    -9.73526   16.31004   -4.85286
       O    -9.06951   16.06206   -4.17404
      H1    -9.61998   15.96631   -3.38096
       H   -13.99925   14.98310   -1.36040
       O   -13.10086   14.79980   -1.00977
      H1   -13.23024   14.58945   -0.08617
       H   -11.23118   18.46275   -0.19425
       O   -11.75873   17.63702   -0.36789
      H1   -11.29488   17.17209   -1.04807
       H   -13.43140   18.36561    5.47359
       O   -13.77212   17.90277    4.69264
      H1   -13.48193   17.00490    4.87826
       H   -15.58965   14.04428   -1.96021
       O   -15.49366   14.97144   -2.24178
      H1   -16.14907   15.44410   -1.71586
       H   -11.30505   13.54173    1.67118
       O   -10.98011   13.91434    0.80847
      H1   -10.10973   13.52394    0.70609
       H    -6.87848   16.74902    3.18705
       O    -7.39993   16.29847    2.48331
      H1    -8.24517   16.70309    2.47000
       H   -16.14795   17.47847    0.98025
       O   -16.70907   16.69046    1.01888
      H1   -16.08280   15.98114    1.16116
       H   -13.57568   16.48455   -3.58359
       O   -13.04602   15.90269   -4.11942
      H1   -13.62905   15.59159   -4.82063

