60
frame 1 | Written by MDAnalysis XYZWriter (release 2.4.3)
       H   -13.77779   -5.03027    0.81550
       O   -14.08315   -4.17480    0.52933
      H1   -14.52048   -3.81953    1.34465
       H   -16.61254   -8.77674    0.03571
       O   -16.25260   -9.05917    0.87858
      H1   -15.95808   -9.94723    0.67725
       H   -12.56985   -5.15055    2.71952
       O   -13.09032   -4.97958    3.54128
      H1   -14.02391   -5.03485    3.27145
       H   -17.94983   -4.33390    3.97593
       O   -18.77183   -4.43399    4.50696
      H1   -19.42303   -3.90545    4.02159
       H   -14.50937   -7.30632    0.27934
       O   -13.80074   -6.80481    0.65583
      H1   -13.82110   -7.10512    1.56333
       H   -17.02564   -7.41657    1.80835
       O   -17.80607   -6.87955    1.94972
      H1   -18.33731   -7.28058    2.64615
       H   -17.01361  -10.19148   -2.73366
       O   -17.06940   -9.23814   -2.76436
      H1   -16.86664   -9.05472   -3.66597
       H   -17.69997   -1.88086    1.79220
       O   -17.51373   -2.19847    2.68527
      H1   -16.59334   -1.95312    2.88802
       H   -15.58238   -7.79175    5.55264
       O   -15.08684   -7.00417    5.81574
      H1   -14.63043   -6.78029    4.99176
       H   -18.90411   -6.51489   -1.30310
       O   -18.87494   -7.08617   -0.51988
      H1   -18.31402   -6.64756    0.13401
       H   -13.68814   -7.70540    3.98008
       O   -14.39355   -7.87512    3.34372
      H1   -14.40852   -8.84815    3.30361
       H   -15.65959   -6.35969   -1.33480
       O   -16.00474   -5.59390   -0.86937
      H1   -15.25512   -5.22524   -0.39712
       H   -17.50509   -4.69253    0.52642
       O   -18.24547   -4.11560    0.78645
      H1   -18.24443   -4.05192    1.75418
       H   -15.65681   -8.35525   -2.26901
       O   -14.85943   -7.92553   -1.93005
      H1   -14.51297   -7.52585   -2.72263
       H   -15.22685   -2.87857   -2.38261
       O   -15.13371   -3.75559   -2.79745
      H1   -15.41170   -4.34662   -2.11093
       H   -16.46671  -11.70602    4.52540
       O   -17.40614  -11.46548    4.41836
      H1   -17.48540  -11.29467    3.46336
       H   -14.58120  -11.58004    3.00824
       O   -14.23016  -10.72890    3.21671
      H1   -13.40411  -10.92065    3.67735
       H   -17.19788   -9.80528    4.93264
       O   -17.21924   -8.93935    5.38477
      H1   -17.95503   -8.50804    4.94731
       H   -16.74355   -5.64564    3.29095
       O   -16.05073   -4.99555    3.53900
      H1   -16.07410   -4.98059    4.51313
       H   -15.66028   -5.31776    6.63066
       O   -15.70407   -4.40281    6.41738
      H1   -16.00381   -4.01731    7.23558

