60
frame 2 | Written by MDAnalysis XYZWriter (release 2.4.3)
       H    -7.51928    2.51695   -1.89434
       O    -7.67001    1.73614   -2.42844
      H1    -8.12735    1.10722   -1.87239
       H    -4.91842   -1.12694   -1.66791
       O    -4.19515   -0.90210   -2.27225
      H1    -4.52229   -1.20021   -3.13626
       H    -8.39336   -3.72528    0.20079
       O    -7.91600   -3.75601   -0.63570
      H1    -8.39636   -4.46489   -1.06650
       H    -8.98687   -4.69552    2.07500
       O    -9.24155   -3.80365    1.74269
      H1    -8.64920   -3.20887    2.28618
       H    -5.71088   -1.09358    3.17655
       O    -5.01283   -0.47154    3.41218
      H1    -4.26063   -1.05339    3.63110
       H    -7.65243   -0.82381    2.12016
       O    -7.65469   -1.57377    2.76885
      H1    -8.23970   -1.21662    3.42707
       H    -5.10448    3.50807    3.41700
       O    -5.08693    3.89114    2.53227
      H1    -5.04383    3.12436    1.95712
       H    -8.58793   -1.96826   -3.82529
       O    -7.63856   -2.09555   -3.74735
      H1    -7.49652   -3.05318   -3.87256
       H    -7.97730    0.45048    0.13244
       O    -7.27487    0.29612    0.78007
      H1    -6.69082   -0.33402    0.35093
       H    -8.35845    1.88759    3.83639
       O    -8.61860    1.47065    4.66308
      H1    -8.41369    2.11290    5.36480
       H    -9.98582    2.86756   -0.64790
       O    -9.82285    2.59532    0.27688
      H1   -10.47058    1.87852    0.38753
       H    -9.04017   -1.31406   -1.38982
       O    -9.06788   -0.36185   -1.49824
      H1    -9.85136   -0.08846   -1.01431
       H   -10.76939    0.54519   -4.47614
       O   -10.74624    1.04603   -3.63566
      H1   -10.13597    0.56150   -3.08657
       H    -6.70334   -2.40013   -0.50589
       O    -5.97412   -1.85367   -0.20766
      H1    -5.67836   -2.29275    0.60352
       H    -4.23136    0.88380   -1.89400
       O    -4.48682    1.80704   -1.86535
      H1    -5.42486    1.73131   -2.12523
       H    -7.20659    3.49097    2.20787
       O    -7.96751    2.90648    2.31332
      H1    -8.20118    2.74694    1.40450
       H    -4.66466    1.70121    0.02280
       O    -4.72630    1.64568    1.00453
      H1    -5.58404    1.20204    1.07303
       H   -11.41072    4.38129    2.16655
       O   -10.44959    4.55698    2.29463
      H1   -10.03800    3.69397    2.18847
       H    -7.16214    4.54155   -3.00409
       O    -7.24496    4.48809   -2.03824
      H1    -6.39704    4.65634   -1.64321
       H   -12.10697    0.68349    0.50131
       O   -11.31113    0.20465    0.25788
      H1   -11.05052   -0.19354    1.08814

