60
frame 1 | Written by MDAnalysis XYZWriter (release 2.4.3)
       H    -5.60540  -10.07721   -4.29909
       O    -6.16366   -9.27890   -4.37664
      H1    -6.01278   -9.02475   -5.31235
       H    -2.17239   -8.79248   -3.26537
       O    -1.78296   -8.94348   -4.12601
      H1    -0.88679   -8.62710   -4.04414
       H    -0.19721  -11.90120   -2.17821
       O    -0.38796  -11.67640   -1.25899
      H1    -1.06521  -10.96682   -1.35084
       H    -4.29972  -12.59719   -3.63446
       O    -5.03550  -12.29748   -4.18648
      H1    -5.19633  -13.05698   -4.76110
       H     0.97549  -14.67770   -0.48151
       O     0.43434  -14.17076    0.11852
      H1     0.39466  -13.31475   -0.30362
       H    -4.78647   -9.85964    1.11258
       O    -4.51108  -10.33841    0.31675
      H1    -3.68819  -10.80528    0.54246
       H    -2.70270  -12.46993   -1.77648
       O    -3.10574  -12.98283   -2.50460
      H1    -2.53937  -13.73060   -2.67391
       H    -2.49371  -14.50300    2.04863
       O    -2.60546  -14.88470    1.17677
      H1    -3.27840  -15.56981    1.34160
       H    -3.18524   -9.86058   -1.18439
       O    -2.32587   -9.50794   -1.41775
      H1    -2.08895   -8.87825   -0.74368
       H    -2.02721  -15.85632   -2.01867
       O    -1.93335  -15.48709   -2.90976
      H1    -2.76915  -15.70161   -3.34830
       H     2.50561  -12.39778   -4.07933
       O     1.56199  -12.55372   -3.96012
      H1     1.55116  -13.48876   -4.07878
       H     0.09634  -11.66983   -4.73368
       O    -0.87357  -11.59121   -4.80219
      H1    -1.03354  -10.64863   -4.67458
       H    -0.31447  -14.19448   -5.81829
       O    -1.28056  -14.09066   -5.81450
      H1    -1.43254  -13.32798   -5.22182
       H    -4.67365  -16.59328   -2.55011
       O    -4.45136  -16.54546   -3.48620
      H1    -4.06242  -17.39356   -3.69214
       H    -0.78622  -15.76147   -0.08393
       O    -0.86904  -16.67977   -0.33783
      H1    -0.03770  -16.87330   -0.81141
       H     0.90932  -10.42817   -1.07691
       O     1.61826  -10.03217   -0.55443
      H1     2.20627   -9.77698   -1.27102
       H    -2.63654  -13.02544    0.51835
       O    -2.32022  -12.11008    0.59719
      H1    -1.43024  -12.19934    0.23845
       H    -5.60920  -11.82429    0.71358
       O    -6.14195  -12.63093    0.85949
      H1    -6.11152  -13.07890   -0.01512
       H    -4.20218  -15.02182   -0.58196
       O    -4.50751  -15.80977   -0.97883
      H1    -5.44010  -15.78362   -0.80360
       H    -6.15181  -12.24257   -2.71089
       O    -6.92666  -12.33705   -2.13041
      H1    -7.22194  -11.43391   -1.97282

