60
frame 2 | Written by MDAnalysis XYZWriter (release 2.4.3)
       H   -11.77432    3.00170  -12.43430
       O   -12.70493    3.00976  -12.17474
      H1   -12.69840    3.34208  -11.25359
       H   -12.32230    6.76006  -17.19101
       O   -12.66734    7.62328  -17.38325
      H1   -13.39990    7.69025  -16.78107
       H   -12.66807    2.58516  -17.84001
       O   -13.00312    2.42063  -18.75389
      H1   -12.53370    3.12717  -19.18730
       H    -8.99418    2.21064  -12.19244
       O    -8.51375    1.99959  -11.37702
      H1    -7.74274    1.47483  -11.62788
       H    -9.80268    4.85847  -17.62154
       O   -10.33380    5.52751  -17.17592
      H1    -9.77164    6.28894  -17.04000
       H   -15.76738    1.22750  -15.59039
       O   -15.85580    1.55500  -14.68028
      H1   -15.67090    2.48206  -14.79879
       H   -11.91354   -0.51672  -14.78897
       O   -12.71406   -0.04008  -15.04119
      H1   -12.35250    0.80881  -15.23753
       H    -8.86046    2.80467  -19.11196
       O    -8.97776    3.50409  -18.42344
      H1    -8.61244    3.03652  -17.66625
       H   -14.20782   -1.97597  -16.73628
       O   -14.08771   -1.15092  -17.20790
      H1   -13.54805   -0.60840  -16.58143
       H    -7.40230    1.64102  -17.06459
       O    -7.66317    2.21781  -16.31990
      H1    -6.99198    2.93604  -16.26875
       H    -5.96587   -0.71560  -15.37821
       O    -6.62119   -0.21032  -14.90690
      H1    -6.49546    0.70460  -15.25065
       H    -9.48050    5.20321  -15.47789
       O    -8.83173    4.91649  -14.82026
      H1    -9.09534    5.29247  -13.97773
       H    -9.76983   -0.60410  -17.35079
       O    -9.33037    0.20392  -17.61707
      H1    -8.67216   -0.08820  -18.23825
       H   -11.09318   -1.84849  -18.13178
       O   -10.61521   -2.31597  -17.45041
      H1    -9.98781   -2.83270  -17.95441
       H   -13.94013   -1.01216  -12.50216
       O   -13.67423   -0.12297  -12.23552
      H1   -13.61901    0.28114  -13.11694
       H    -9.16269   -0.60875  -14.25226
       O    -9.68613   -0.13023  -14.89329
      H1    -9.17783   -0.22002  -15.71174
       H   -14.28796    3.31955  -17.72390
       O   -14.96067    3.52219  -17.07524
      H1   -15.75502    3.09029  -17.41977
       H   -11.38634    2.38442  -15.06495
       O   -11.55311    2.53001  -16.00251
      H1   -10.74643    2.19551  -16.41932
       H   -10.75472   -2.03267  -15.10222
       O   -11.47109   -2.45904  -14.61207
      H1   -11.04693   -2.57568  -13.74721
       H    -9.60240    3.23445  -14.04396
       O   -10.12126    2.50017  -13.68956
      H1    -9.73414    1.76158  -14.13778

