60
frame 1 | Written by MDAnalysis XYZWriter (release 2.4.3)
       H   -15.90251   11.96748   11.44076
       O   -15.59438   11.88076   10.53621
      H1   -15.20163   11.01855   10.56246
       H   -14.52829   18.45146   13.17205
       O   -13.87577   17.76072   12.95339
      H1   -13.79097   17.18723   13.75149
       H   -14.02896   12.47942    9.81489
       O   -13.25083   13.03044    9.76712
      H1   -13.14452   13.20580    8.81307
       H   -13.93581   12.43471    6.94860
       O   -12.99789   12.64311    7.04000
      H1   -12.58043   11.80707    6.84535
       H   -16.93924   15.54079    4.12652
       O   -16.05044   15.94111    4.18957
      H1   -15.79276   16.15495    3.26646
       H   -15.14675   16.35757    7.85271
       O   -14.81616   16.00985    8.69533
      H1   -15.57989   15.58702    9.05781
       H    -9.87813   17.28954    9.34794
       O    -9.92336   16.36344    9.05991
      H1   -10.14723   15.92733    9.89526
       H   -12.92171   16.15871    8.17238
       O   -12.23564   16.53800    7.60671
      H1   -11.46626   16.46582    8.19335
       H   -14.52102   15.00723    4.81517
       O   -13.57222   14.86942    4.70595
      H1   -13.32892   14.64401    5.59055
       H   -16.56115   15.81487   13.20717
       O   -15.89142   15.61917   12.54622
      H1   -15.36018   16.43281   12.55602
       H   -18.68287   12.51065    6.95771
       O   -18.26156   12.93198    6.20187
      H1   -17.32755   12.69126    6.33253
       H   -13.68256   13.35106   13.51387
       O   -14.51255   13.63576   13.92758
      H1   -14.88170   14.28677   13.33448
       H   -13.29783   16.00135   10.46188
       O   -13.27227   15.33676   11.15369
      H1   -13.26186   14.51048   10.70189
       H   -12.72108   18.11990    8.09658
       O   -13.01952   18.72915    8.80645
      H1   -12.40780   18.49668    9.49067
       H   -13.43140   18.36561    5.47359
       O   -13.77212   17.90277    4.69264
      H1   -13.48193   17.00490    4.87826
       H   -11.52712   15.72531   11.67083
       O   -10.58753   15.52384   11.81781
      H1   -10.57669   14.70972   12.36608
       H   -16.77119   13.87139    9.77311
       O   -17.02459   14.74182   10.11933
      H1   -16.45916   14.95131   10.87013
       H   -16.59112   17.12508    5.49216
       O   -16.51665   17.58780    6.36356
      H1   -17.41531   17.47803    6.70630
       H   -16.05161   11.04946    6.87040
       O   -15.75368   11.93807    6.71840
      H1   -15.22622   11.80707    5.92824
       H   -17.25482   18.54945    9.91962
       O   -16.33252   18.37845   10.08964
      H1   -16.04651   17.66244    9.51926

