60
frame 1 | Written by MDAnalysis XYZWriter (release 2.4.3)
       H    15.61540   -5.70804   11.48935
       O    15.25659   -5.02915   12.04277
      H1    15.92073   -4.89659   12.72849
       H     9.94575   -7.35355   13.30488
       O    10.49202   -8.10434   13.54532
      H1    11.38564   -7.73984   13.63238
       H    13.79707  -11.48018    7.92798
       O    13.05181  -11.02423    7.52525
      H1    12.82974  -11.54751    6.72788
       H    15.88412   -4.18818    8.77103
       O    16.75505   -4.04347    9.19717
      H1    17.03835   -4.87924    9.53679
       H    13.77587   -6.96807    8.03988
       O    13.64520   -6.71704    8.95754
      H1    12.97860   -7.37902    9.24207
       H    12.68641   -8.06006    5.90099
       O    13.44153   -8.52671    6.22831
      H1    13.23970   -9.48115    6.15111
       H    10.96520   -5.12341    9.58814
       O    10.61425   -5.17901   10.52103
      H1    11.01203   -5.99409   10.85383
       H    15.30784   -3.72783    5.90205
       O    15.24460   -4.45180    6.55132
      H1    16.13892   -4.86441    6.58917
       H    11.96035   -4.13614    8.33984
       O    11.61606   -5.02843    8.08118
      H1    12.36333   -5.63959    8.22705
       H    17.51178   -7.27896   10.32844
       O    17.74232   -6.33441   10.46287
      H1    18.42346   -6.16078    9.81529
       H    14.74466   -8.01819   11.56677
       O    15.23403   -7.80557   10.74543
      H1    14.54167   -7.40399   10.21134
       H    15.29178  -12.08064    9.71429
       O    14.51216  -12.56911    9.41270
      H1    14.78035  -13.30752    8.85929
       H    12.26564   -7.01923   11.82690
       O    11.95465   -7.47465   11.02286
      H1    11.17959   -7.99024   11.40504
       H    14.30833   -3.60070   11.72352
       O    13.73640   -2.87843   11.52174
      H1    14.13715   -2.11049   11.94872
       H    14.52787   -9.49423   13.56867
       O    14.72586   -8.52610   13.48213
      H1    15.61977   -8.41788   13.83278
       H    17.29644   -6.91170    7.00079
       O    17.13812   -6.26000    6.30953
      H1    16.41890   -6.57433    5.72037
       H    17.24408   -3.13100   12.17499
       O    16.91432   -2.62875   11.41335
      H1    16.48298   -3.27138   10.82429
       H    13.58198   -6.43280   13.13012
       O    12.70412   -6.41313   13.51062
      H1    12.48615   -5.47524   13.55816
       H    16.06141   -8.11526    9.00321
       O    16.67890   -8.47148    8.38206
      H1    16.49117   -9.41588    8.42431
       H    11.25499   -8.89044    9.29353
       O    11.43003   -8.45543    8.44105
      H1    12.01842   -9.02927    7.93641

