60
frame 0 | Written by MDAnalysis XYZWriter (release 2.4.3)
       H    -8.88986   16.27658   -4.15847
       O    -8.96914   16.87042   -4.92640
      H1    -9.67950   17.46361   -4.63456
       H   -12.71030   16.25966   -6.61400
       O   -11.79607   16.47942   -6.67427
      H1   -11.54092   15.91892   -7.41789
       H   -12.64907   16.58801   -2.35134
       O   -12.75819   16.77286   -1.41546
      H1   -12.90905   15.91258   -0.97328
       H   -10.60015   12.90528   -1.95997
       O   -11.50328   13.25411   -1.89226
      H1   -12.07361   12.55301   -2.20143
       H    -9.62716   16.60942    0.11251
       O    -9.31168   15.72139   -0.12028
      H1    -9.86921   15.11302    0.38980
       H   -12.43153   18.30233   -6.58977
       O   -12.42129   19.24694   -6.38773
      H1   -13.20401   19.36214   -5.86211
       H   -10.53025   18.26499    2.03830
       O   -10.20139   17.83350    2.83476
      H1   -10.68270   16.98804    2.92252
       H   -13.62682   18.85408    0.72196
       O   -14.33086   18.36514    0.27060
      H1   -13.89474   17.69531   -0.27695
       H   -14.55739   14.45161    3.19266
       O   -15.00040   14.18103    2.38146
      H1   -15.47476   13.39396    2.68342
       H   -11.31527   15.11462    3.77184
       O   -11.82693   15.57314    3.07081
      H1   -12.34348   16.19792    3.58276
       H   -13.72218   11.93832   -0.64955
       O   -14.34870   12.03181   -1.39622
      H1   -14.52293   12.98556   -1.40245
       H    -9.65864   15.63130   -1.96430
       O    -9.94094   15.44483   -2.86597
      H1   -10.67588   14.84179   -2.74958
       H   -15.06475   14.51791   -0.53602
       O   -14.22854   14.73612   -0.10169
      H1   -14.32969   14.51501    0.81016
       H   -16.74982   18.06343   -2.67310
       O   -17.12309   18.51175   -3.44360
      H1   -16.37200   18.73911   -3.97114
       H   -11.30612   14.35159    1.47355
       O   -11.05389   13.58684    0.90392
      H1   -11.60635   13.68807    0.10780
       H   -16.79639   13.92802   -1.59827
       O   -16.23989   14.67811   -1.86215
      H1   -16.54269   15.38136   -1.27768
       H   -15.31157   17.46079    1.46284
       O   -16.02837   16.96192    1.91093
      H1   -15.79814   16.04168    1.70678
       H   -15.26586   14.67432   -3.39322
       O   -14.62074   14.67770   -4.09866
      H1   -14.50383   13.73030   -4.36357
       H   -11.43787   18.13249   -0.53120
       O   -10.79095   18.36837    0.14569
      H1   -10.02007   18.60995   -0.33075
       H   -18.07027   16.87139   -0.41857
       O   -17.13290   16.92725   -0.63558
      H1   -16.69008   17.13490    0.20714

