60
frame 2 | Written by MDAnalysis XYZWriter (release 2.4.3)
       H     2.15433    5.33652   -6.18171
       O     2.00029    5.23760   -7.09478
      H1     2.36435    6.06033   -7.46248
       H    -0.08477    5.39024   -7.49114
       O    -0.79040    5.99786   -7.75339
      H1    -0.45852    6.46608   -8.51908
       H    -0.97403    1.58058   -4.39563
       O    -1.37281    0.73058   -4.68391
      H1    -0.62508    0.15087   -4.99227
       H     6.14702    3.42763   -8.45664
       O     5.58205    3.77172   -9.15889
      H1     4.71354    3.37700   -8.95384
       H     0.02819    6.09221  -12.55942
       O    -0.28402    5.64863  -11.75862
      H1    -1.22999    5.52607  -11.82312
       H     1.42227    2.41562   -4.95122
       O     0.52157    2.74021   -4.86357
      H1     0.29389    2.94100   -5.78486
       H     3.49999    2.15330   -8.02068
       O     3.19826    2.81441   -8.66200
      H1     3.07489    2.29621   -9.44499
       H     0.69348    4.88887   -2.25915
       O     1.16226    4.87533   -3.09005
      H1     0.68975    4.23974   -3.62778
       H    -0.63308    2.82788   -8.28718
       O     0.03001    3.16262   -7.67434
      H1     0.81491    3.21583   -8.20862
       H     3.39710    1.32393  -11.82974
       O     3.05407    1.35344  -10.92033
      H1     2.45618    0.59895  -10.81144
       H     0.68629   -0.79578   -9.48889
       O     1.63806   -0.73687   -9.44936
      H1     1.98567   -1.12445  -10.24491
       H     2.23431   -0.98468   -7.87404
       O     2.50346   -0.88694   -6.94562
      H1     2.28165    0.02751   -6.73587
       H    -2.75025    1.75332   -7.81326
       O    -2.30543    2.03933   -8.61339
      H1    -2.86782    1.83822   -9.35168
       H    -1.65141    2.53714  -11.73814
       O    -1.64301    1.58012  -11.53812
      H1    -2.27633    1.19897  -12.17243
       H     2.79610    5.03616  -10.73220
       O     3.26500    5.84817  -10.86079
      H1     2.66838    6.41525  -11.35329
       H     2.57273    3.09462  -13.66357
       O     1.90527    3.78318  -13.54564
      H1     1.66404    3.69516  -12.59308
       H     1.50583    4.33315   -9.43727
       O     1.35270    4.04441  -10.36097
      H1     0.99561    4.83679  -10.81972
       H    -2.42382    5.09064   -7.90148
       O    -3.25879    4.66926   -8.06482
      H1    -2.99170    3.78970   -8.27347
       H     0.22462    6.73723   -5.13999
       O     0.36539    7.69883   -5.14304
      H1     0.37643    7.89080   -4.19379
       H    -1.40086    0.04631   -8.72055
       O    -1.23970   -0.76358   -9.22707
      H1    -1.48916   -1.46564   -8.62090

