60
frame 1 | Written by MDAnalysis XYZWriter (release 2.4.3)
       H     6.39058   15.93011    8.21426
       O     6.51137   16.84934    8.35004
      H1     7.44295   17.02423    8.06159
       H     3.52527   14.00673    7.99786
       O     2.70926   13.67666    7.61957
      H1     2.11424   13.53535    8.36037
       H     4.72947   14.99478    9.70443
       O     4.90668   14.48907    8.86461
      H1     5.17248   13.62931    9.19958
       H     4.06642   17.92189    6.30204
       O     4.91875   18.35077    6.46862
      H1     5.42795   17.79094    7.06518
       H    11.37409   18.28820    9.02531
       O    11.00956   17.42055    8.80390
      H1    11.70813   16.95474    8.26728
       H     4.76890   14.62625    5.30745
       O     5.53913   14.05964    5.54733
      H1     5.74311   13.46286    4.80917
       H     7.21233   18.29910    4.70825
       O     6.75354   17.49262    4.65134
      H1     5.91637   17.62415    5.17007
       H     5.87635   16.36546    1.82520
       O     6.74335   16.33308    2.27408
      H1     6.53181   16.73173    3.12672
       H     9.72335   17.66445   13.29315
       O     9.37837   17.68058   12.40290
      H1    10.17001   17.74428   11.84507
       H     3.32986   15.82082    6.53496
       O     3.26306   16.14897    5.64134
      H1     2.32541   15.98966    5.38249
       H     3.79894   17.04635    9.60696
       O     3.13759   17.14555    8.92420
      H1     2.25047   17.09441    9.33650
       H     5.19365   16.84495   11.99416
       O     6.08718   17.20244   12.13154
      H1     6.69603   16.43464   12.04097
       H     3.11602   15.44614   11.42792
       O     4.01974   15.69002   11.34145
      H1     4.45867   15.14977   12.02851
       H     8.62978   18.81005    8.04718
       O     8.82788   17.96540    7.59017
      H1     9.59534   17.62585    8.09196
       H     8.18131   14.59851   12.90790
       O     8.19468   15.19876   12.13974
      H1     8.69243   15.98770   12.43259
       H     9.56467   13.93470    9.86838
       O     9.43053   12.97227    9.82180
      H1     8.72447   12.76763    9.20001
       H     7.49171   15.56380    5.55246
       O     8.30785   15.38932    6.03620
      H1     8.60058   16.27266    6.31977
       H     6.88654   13.04084    7.45335
       O     7.82086   13.02704    7.65183
      H1     8.11108   13.73362    7.03916
       H    10.29188   16.15769   10.00809
       O    10.45714   15.34022   10.49809
      H1     9.73065   15.26575   11.12763
       H     9.80866   14.91813    3.29489
       O    10.13318   15.67907    3.80504
      H1     9.60903   15.63028    4.59912

