60
frame 0 | Written by MDAnalysis XYZWriter (release 2.4.3)
       H     2.70317   -7.45091  -10.81148
       O     1.94519   -7.05283  -10.42397
      H1     1.78705   -6.27338  -10.97006
       H     1.12583   -9.58123   -8.66137
       O     1.61427   -9.78973   -9.48626
      H1     1.75377   -8.93458   -9.87986
       H     3.31464  -10.35565  -10.04387
       O     4.09558  -10.84407  -10.41578
      H1     4.37850  -11.33941   -9.65832
       H     5.71582   -7.79747   -8.23510
       O     6.50787   -7.37726   -7.84047
      H1     6.12037   -6.86629   -7.08806
       H     1.56763   -6.53046   -8.55548
       O     1.39364   -6.14423   -7.68402
      H1     0.46936   -5.84216   -7.76402
       H    -1.99780   -8.54555   -8.41021
       O    -2.36700   -8.08429   -9.16856
      H1    -1.70258   -8.24718   -9.84419
       H     4.60338   -8.03920  -11.64626
       O     5.14339   -8.08224  -10.84864
      H1     5.09593   -9.01210  -10.61426
       H     2.57476   -5.44608  -13.78998
       O     1.87949   -5.63644  -13.15458
      H1     1.13712   -5.99815  -13.67041
       H     5.72946   -6.75284  -15.36413
       O     5.23773   -7.56820  -15.28261
      H1     4.75228   -7.41969  -14.44288
       H     3.69528   -8.23188   -7.28310
       O     3.89126   -7.92837   -8.18738
      H1     3.80468   -6.97017   -8.16290
       H     2.87406  -12.99162  -12.16174
       O     2.92022  -12.03825  -12.32286
      H1     3.45036  -11.72483  -11.58978
       H     4.95568   -6.46673  -10.59952
       O     4.76771   -5.49940  -10.72253
      H1     4.55904   -5.16725   -9.81703
       H     4.52314   -4.34866   -7.58836
       O     3.90791   -4.86832   -8.12371
      H1     3.28559   -5.15184   -7.46214
       H    -0.07586   -8.47120  -11.92850
       O    -1.00931   -8.47481  -11.57583
      H1    -1.43103   -9.31074  -11.88373
       H     6.57700   -5.73744   -8.99140
       O     7.17278   -5.02090   -9.18573
      H1     6.82005   -4.79543  -10.07407
       H     3.32540  -10.06046  -14.91677
       O     2.52247  -10.00348  -14.40746
      H1     2.65135  -10.68254  -13.73465
       H     1.35380   -2.48424   -8.99529
       O     2.31476   -2.52760   -8.97652
      H1     2.54200   -3.41741   -8.67419
       H     2.99586   -8.69062  -13.15595
       O     3.37249   -7.81798  -12.97479
      H1     2.65414   -7.22830  -13.16813
       H    -0.39498   -3.39158  -12.11520
       O     0.44978   -3.28459  -12.57100
      H1     0.75742   -4.18525  -12.80467
       H     6.29820   -4.67260  -13.71649
       O     6.38133   -4.40689  -12.76199
      H1     5.51079   -4.64865  -12.45254

