60
frame 2 | Written by MDAnalysis XYZWriter (release 2.4.3)
       H     4.30576    6.48729   15.35267
       O     3.99937    5.82083   14.71586
      H1     4.72623    5.16871   14.60399
       H     1.54174    2.50491    8.30670
       O     2.07786    3.28582    8.45900
      H1     1.60297    3.97721    8.00853
       H     2.80491    8.20643   11.53731
       O     3.30579    8.46166   10.74172
      H1     2.61191    8.65770   10.05350
       H     5.47339    6.14182    9.28605
       O     4.73543    6.79363    9.12430
      H1     4.37668    6.92060   10.03623
       H     4.33347    6.12934   12.96505
       O     4.31068    6.16321   11.99700
      H1     3.57333    5.53462   11.84938
       H     4.23102    3.18732   12.02516
       O     4.89087    2.49485   11.74591
      H1     4.86779    1.94150   12.51875
       H     0.97540    6.80887    9.36821
       O     0.07655    6.95707    9.72910
      H1     0.18134    6.69941   10.63955
       H     3.23979    6.96651    8.34009
       O     2.35682    6.96781    7.92777
      H1     2.49869    7.58905    7.20020
       H    -0.75924    2.19100   10.67242
       O    -0.14979    2.06396   11.41057
      H1    -0.21458    2.90828   11.86977
       H     1.83113    4.78838   11.62396
       O     2.52537    4.16911   11.29858
      H1     2.09117    3.80765   10.50423
       H     3.01467    1.60161   11.29690
       O     2.26799    0.98800   11.24223
      H1     1.54937    1.65164   11.29651
       H     1.49609    8.18354   13.68363
       O     1.45779    8.02117   12.72530
      H1     1.20836    8.88383   12.36380
       H    -0.62311    7.42210   14.81785
       O    -0.07948    6.74876   15.24007
      H1     0.60333    7.21523   15.74353
       H     6.60477    4.97535   11.44485
       O     6.74112    4.18677   11.98100
      H1     6.11505    3.52933   11.68828
       H     4.08352    2.87198   15.98575
       O     3.64248    2.86387   15.12128
      H1     3.39988    3.81303   14.97910
       H    -0.54950    5.67192   12.59631
       O     0.32669    5.50960   12.20581
      H1     0.80610    6.29569   12.53533
       H     6.12483    6.65473   11.56826
       O     6.97258    6.99101   11.89559
      H1     7.37189    7.31204   11.09050
       H    -2.67880    5.71523   11.49116
       O    -2.50262    5.05009   12.17631
      H1    -3.10887    4.33260   11.95177
       H    -1.64120    3.82719    9.58988
       O    -1.98029    2.92798    9.56873
      H1    -2.60087    2.96164   10.31486
       H     1.88622    0.60737    9.55598
       O     1.49614    0.67498    8.66787
      H1     0.58932    0.38782    8.82335

