60
frame 1 | Written by MDAnalysis XYZWriter (release 2.4.3)
       H   -11.41345    7.26544   -4.86177
       O   -11.58493    6.53030   -4.28503
      H1   -12.20519    6.89378   -3.62863
       H   -12.46476    2.77602   -6.20117
       O   -12.24423    3.66025   -5.87405
      H1   -11.69882    3.44838   -5.10033
       H   -15.62152    3.75213   -5.82497
       O   -16.24069    3.13042   -6.23225
      H1   -15.89885    2.27923   -5.91969
       H   -12.77864    7.08459  -10.68853
       O   -12.11446    6.56384  -11.11463
      H1   -11.26300    7.03505  -11.07943
       H   -15.68287    6.55969   -5.77521
       O   -16.36374    6.40835   -6.43519
      H1   -17.09572    6.72135   -5.91759
       H   -12.45618    6.62876   -7.18759
       O   -13.39275    6.52530   -6.99495
      H1   -13.33144    6.24944   -6.07889
       H   -14.12382    4.88055   -3.67140
       O   -14.34487    4.75652   -4.63565
      H1   -13.47580    4.45855   -4.96635
       H   -11.34382    3.76160  -10.59055
       O   -12.24405    3.41620  -10.51540
      H1   -12.74041    4.08741  -10.02147
       H   -14.01577    9.81601   -6.83033
       O   -13.24477    9.76423   -7.40211
      H1   -12.50887    9.40844   -6.84402
       H   -10.90953    4.02331   -7.15400
       O   -10.44205    3.85540   -7.99123
      H1   -11.14139    3.57626   -8.58175
       H   -10.31071    5.51023   -4.07848
       O    -9.65521    4.83938   -4.22187
      H1    -8.97806    5.29260   -4.72042
       H   -11.66251    9.75830  -10.48154
       O   -10.82832    9.25858  -10.48491
      H1   -10.17084    9.78886  -10.93644
       H   -10.33611    8.72281   -5.80204
       O   -10.80597    8.32830   -6.55294
      H1   -10.08895    7.96070   -7.07516
       H   -14.48460    6.63425   -9.92706
       O   -14.29226    7.57217   -9.73703
      H1   -14.17061    7.60684   -8.76210
       H   -16.61461    8.13670   -7.30833
       O   -17.24119    8.84742   -7.52821
      H1   -17.59682    8.52877   -8.35687
       H   -12.97072   10.51988   -9.01424
       O   -13.17983   10.72283   -9.90022
      H1   -12.47799   11.36536  -10.15401
       H    -8.50821    2.55122   -6.12997
       O    -8.22565    2.69343   -7.07277
      H1    -8.96762    3.28432   -7.29875
       H   -14.67388    3.98482   -8.44359
       O   -13.72503    4.04254   -8.22402
      H1   -13.75031    4.81211   -7.63031
       H   -12.80680   11.43698   -7.00172
       O   -12.38387   12.29023   -7.13338
      H1   -13.05967   12.77202   -7.64848
       H   -10.21403    5.70675   -8.38367
       O   -10.02295    6.66206   -8.59848
      H1   -10.69872    6.85894   -9.27086

