60
frame 2 | Written by MDAnalysis XYZWriter (release 2.4.3)
       H    15.13456   -3.57130   -2.40163
       O    15.65166   -3.97889   -1.63634
      H1    15.70435   -4.89680   -1.89037
       H    14.11501    1.12078    3.88313
       O    14.46019    0.62493    3.14417
      H1    13.91658   -0.16661    3.26250
       H    17.40282    1.17154   -3.62674
       O    17.29548    2.01789   -4.06197
      H1    17.65473    2.60879   -3.36542
       H    19.01558    5.24294    0.78385
       O    18.71080    5.73026    0.02342
      H1    18.85538    6.62036    0.34615
       H    17.53637   -3.62731   -1.68337
       O    18.47510   -3.42390   -1.79366
      H1    18.79887   -4.07703   -2.40164
       H    17.58509   -2.46101    3.07482
       O    18.10350   -2.60101    3.87452
      H1    17.98392   -3.53427    4.15370
       H    14.72970   -1.74495   -0.50848
       O    14.99425   -0.83973   -0.69935
      H1    14.36710   -0.27361   -0.25831
       H    18.31859   -0.36441   -1.21795
       O    18.88020    0.16053   -0.65950
      H1    18.91571   -0.32777    0.17397
       H    15.15249    4.28657   -2.63760
       O    15.33750    3.42163   -2.17822
      H1    15.53700    2.83845   -2.92823
       H    18.40075    5.59137    3.04022
       O    19.25136    5.20989    3.24762
      H1    19.12362    4.27527    3.19809
       H    17.42724   -4.32052    1.41990
       O    16.55257   -4.63916    1.25958
      H1    16.09819   -4.58795    2.10928
       H    16.45828   -1.19953    1.03473
       O    16.80989   -1.86092    1.63730
      H1    16.54352   -2.65422    1.17876
       H    12.79886    1.53264   -2.54817
       O    13.61890    1.07875   -2.24725
      H1    14.14337    1.77615   -1.84230
       H    18.27644    1.66404    5.38963
       O    19.18722    1.53590    5.67260
      H1    19.45562    0.80925    5.07983
       H    18.89133    2.64413    1.78271
       O    18.22237    2.73336    2.47006
      H1    17.39962    2.94420    2.00474
       H    16.97505    4.10089   -1.62270
       O    17.85376    4.22055   -2.00502
      H1    18.39660    4.59658   -1.26566
       H    17.50725    1.67599    3.58447
       O    17.06160    0.93310    4.03690
      H1    16.24302    0.81719    3.54973
       H    14.34569    1.57628    1.64484
       O    14.27394    1.83874    0.70761
      H1    13.72816    2.64293    0.70732
       H    15.65474    2.72232    0.75128
       O    16.36562    3.36384    0.59371
      H1    16.75496    2.98862   -0.21335
       H    16.89906   -0.80793   -1.72479
       O    17.38215   -0.75728   -2.54586
      H1    17.87334   -1.59297   -2.64357

