60
frame 0 | Written by MDAnalysis XYZWriter (release 2.4.3)
       H    17.29158    0.82557  -10.87758
       O    16.90702    1.69254  -10.75507
      H1    16.02091    1.41036  -10.51469
       H    15.07485    3.77793   -9.47430
       O    15.45258    4.46348  -10.00452
      H1    16.32135    4.51390   -9.63751
       H    18.72042    9.87306   -9.57943
       O    18.94994   10.20496  -10.48025
      H1    18.49350    9.55564  -11.04517
       H    16.86602   10.08393  -13.16142
       O    17.67420   10.63358  -13.02162
      H1    17.56999   11.05843  -12.15881
       H    17.05761    2.74783  -17.67569
       O    16.86916    2.79293  -16.71911
      H1    16.13929    2.21463  -16.65722
       H    12.10191    1.60243  -13.42165
       O    12.54649    2.40337  -13.15585
      H1    13.28112    2.13461  -12.62103
       H    14.88516    4.94566  -12.65664
       O    14.06872    5.41566  -12.77325
      H1    14.38331    6.31242  -12.95979
       H    17.15760    4.20297  -13.16852
       O    16.92806    5.08249  -12.85320
      H1    17.39145    5.21972  -12.03591
       H    19.20350    4.86359  -15.53437
       O    19.29488    4.03914  -16.01625
      H1    18.39804    3.68969  -16.05541
       H    15.06055    5.88960   -8.87925
       O    14.65504    6.27743   -8.08689
      H1    13.97829    5.63897   -7.84236
       H    12.90030    5.58463  -11.28997
       O    12.07409    5.52921  -10.80673
      H1    11.98043    6.44001  -10.50577
       H    14.65665    4.75846  -16.49194
       O    15.40170    5.11191  -17.00412
      H1    15.99450    4.36747  -17.07206
       H    13.31201    8.82270  -13.00499
       O    13.95329    8.15674  -12.75286
      H1    14.53043    8.54043  -12.04792
       H    18.91997    6.38017  -10.73552
       O    17.97991    6.56368  -10.49977
      H1    17.93470    6.59641   -9.52924
       H    16.86379    1.90041  -12.77053
       O    16.85835    2.44392  -13.55071
      H1    16.36053    1.86557  -14.14993
       H    16.80102    7.92950  -16.55860
       O    17.15024    7.14526  -17.02762
      H1    16.43830    6.47705  -16.97979
       H    17.78866    6.40645  -15.27656
       O    18.46035    6.27979  -14.61186
      H1    17.92169    5.98005  -13.85351
       H    15.68200    9.59611  -14.81945
       O    16.05849    8.81920  -14.38748
      H1    15.33990    8.50383  -13.82004
       H    16.48380    7.77805  -11.16215
       O    16.10454    8.66378  -11.34042
      H1    15.94814    9.03139  -10.44062
       H    13.46142    4.69406  -14.19471
       O    13.17987    4.46534  -15.12919
      H1    13.12157    3.49260  -15.05501

