60
frame 1 | Written by MDAnalysis XYZWriter (release 2.4.3)
       H   -11.98034   -9.01750  -10.56401
       O   -11.87805   -9.99427  -10.53807
      H1   -11.09043  -10.15713  -11.04907
       H    -8.59546  -11.80625  -16.66395
       O    -7.78217  -11.43026  -17.01315
      H1    -7.09311  -12.04220  -16.75139
       H    -9.25185  -14.73391  -15.94346
       O    -9.58867  -14.53496  -15.06423
      H1   -10.04474  -15.35715  -14.78102
       H   -13.40423  -14.58579  -15.30343
       O   -13.41883  -13.59876  -15.41463
      H1   -12.85339  -13.32848  -14.66135
       H   -10.28820   -9.93444  -15.01315
       O   -10.78137   -9.10939  -14.81716
      H1   -10.68375   -8.62242  -15.64234
       H   -13.34126   -9.69213  -13.58641
       O   -13.38123  -10.30623  -12.89725
      H1   -12.90253   -9.86310  -12.18984
       H    -8.19664  -15.43613  -18.25633
       O    -8.57026  -15.54207  -17.37217
      H1    -8.43677  -16.50155  -17.24721
       H    -7.01675  -13.50603  -19.26260
       O    -7.11452  -12.56625  -19.39036
      H1    -7.48536  -12.24520  -18.56254
       H   -10.15575   -7.86649  -17.23429
       O   -10.92172   -7.34177  -17.06135
      H1   -10.65039   -6.45085  -17.27776
       H    -6.54667  -11.29160  -12.68868
       O    -7.24320  -11.68709  -13.23941
      H1    -7.21324  -12.63174  -13.06503
       H    -7.89663   -9.65437  -17.40338
       O    -8.17441   -8.74330  -17.64434
      H1    -7.50886   -8.20360  -17.19811
       H    -4.51080   -9.96474  -16.82023
       O    -5.36425   -9.86361  -16.42122
      H1    -6.00016   -9.91524  -17.13811
       H   -10.14227  -11.97401  -11.83190
       O    -9.80391  -11.23683  -12.37959
      H1    -8.89207  -11.47244  -12.60073
       H    -8.18583  -14.72001  -13.83047
       O    -7.82024  -14.70278  -12.95708
      H1    -7.27226  -15.50117  -12.93074
       H   -10.50708   -7.23064  -12.18175
       O    -9.85048   -7.93114  -12.14106
      H1   -10.22786   -8.55508  -12.78179
       H    -5.19784  -13.41192  -17.05338
       O    -5.82843  -13.55774  -16.35939
      H1    -5.40060  -13.25305  -15.56255
       H   -11.07574  -12.06701  -13.31871
       O   -11.95988  -12.41159  -13.47227
      H1   -12.51860  -11.60475  -13.38679
       H   -14.40921  -13.00634  -11.66146
       O   -13.82231  -13.77980  -11.63554
      H1   -13.00891  -13.54835  -12.13615
       H   -11.72528  -10.99030  -16.26610
       O   -12.09378  -11.11670  -17.16956
      H1   -12.80768  -11.74994  -17.07907
       H    -8.85664  -11.54988  -14.54469
       O    -9.63829  -11.70950  -15.07490
      H1    -9.78440  -12.65636  -14.90649

