60
frame 1 | Written by MDAnalysis XYZWriter (release 2.4.3)
       H    14.61895    4.81945   13.03313
       O    14.21856    4.02997   12.60319
      H1    13.72268    4.42226   11.88082
       H    14.55413    2.42680   11.35718
       O    15.11974    1.85871   10.80074
      H1    15.97526    2.23846   11.06025
       H    17.48234    8.04727    8.07464
       O    18.23096    8.55527    7.79023
      H1    18.52265    8.11770    6.96163
       H    16.18964   -1.23595   10.18975
       O    16.25484   -0.83117    9.33960
      H1    17.09927   -0.40884    9.36753
       H    14.44766    5.58570    7.51460
       O    13.84125    6.02654    8.11850
      H1    13.44094    5.31677    8.65719
       H    15.97968    1.90731    7.16543
       O    16.77903    2.37443    6.92048
      H1    17.04399    2.91945    7.65817
       H    17.77850    4.79073    9.13664
       O    16.90798    4.57591    8.84895
      H1    16.48823    4.17727    9.63215
       H    16.17474    6.54455    9.21374
       O    16.20682    7.53358    9.14900
      H1    15.83174    7.82252    9.99085
       H    11.82640    1.17457    9.84115
       O    11.78739    1.55812    8.95096
      H1    12.65158    1.40208    8.55573
       H    14.99246    7.75966   12.36643
       O    15.48587    8.34338   11.76680
      H1    15.00200    9.16311   11.81099
       H    14.58870    9.75101    9.10140
       O    13.95893    9.26854    8.55338
      H1    14.38625    8.42939    8.34935
       H    17.72414    5.76044   13.84920
       O    17.65795    6.53896   13.24620
      H1    17.35336    7.30913   13.75084
       H    19.51874    0.97600    5.91604
       O    19.09106    1.83758    5.99063
      H1    18.19970    1.60008    6.28629
       H    14.30957    0.28286    7.48403
       O    14.33922    1.07774    8.01806
      H1    14.82321    0.76643    8.79675
       H    13.43294    3.23094    9.20272
       O    13.20577    3.97914    9.78970
      H1    12.44458    3.64382   10.29857
       H    16.09079    4.06153    6.40840
       O    15.45477    4.76004    6.24838
      H1    15.91146    5.27504    5.59854
       H    18.31391    3.00512   11.71290
       O    17.68030    2.47367   11.23818
      H1    17.67814    1.66618   11.77996
       H    14.35723    3.37950    5.26958
       O    13.79639    2.68831    4.82932
      H1    13.90993    1.96069    5.43496
       H    14.87476    0.32280   12.23296
       O    14.40161   -0.45863   12.59988
      H1    14.53519   -0.38377   13.54720
       H    18.73750    1.12974    8.11671
       O    18.56632    0.82189    9.01148
      H1    18.31864    1.64864    9.47351

