60
frame 0 | Written by MDAnalysis XYZWriter (release 2.4.3)
       H    18.35009    1.26027   -1.99308
       O    18.97423    0.62703   -2.38218
      H1    18.54077   -0.23490   -2.29140
       H    16.36602    0.06482   -4.85557
       O    15.97262    0.93409   -4.70413
      H1    15.40008    0.76515   -3.92913
       H    14.68307   -2.55877   -4.20127
       O    15.10455   -2.87028   -3.39121
      H1    15.03414   -3.84317   -3.46472
       H    18.61490    1.89312   -4.39918
       O    18.25227    2.49742   -5.03401
      H1    17.35018    2.22210   -5.18051
       H    17.33803   -5.08776   -5.07257
       O    17.50380   -4.15234   -4.99713
      H1    18.28431   -4.14741   -4.43146
       H    16.41550   -1.94707   -2.40479
       O    17.07175   -1.32923   -2.09373
      H1    16.67098   -0.49826   -2.39504
       H    17.69106   -1.47169   -0.39111
       O    18.27364   -1.88770    0.23124
      H1    18.79441   -2.45280   -0.32375
       H    14.42447    0.78973   -5.85331
       O    13.81221    1.31461   -6.40776
      H1    13.68469    0.65946   -7.10993
       H    16.91076   -5.02656   -8.93176
       O    15.96752   -4.88288   -9.13984
      H1    15.90428   -4.15997   -9.79092
       H    18.37750   -1.43968   -8.13834
       O    17.66133   -1.85054   -7.62821
      H1    17.96422   -1.70170   -6.71925
       H    11.01636   -2.54682   -4.41153
       O    11.32695   -1.94954   -5.12262
      H1    12.16956   -2.33938   -5.35984
       H    14.77951    0.52742   -1.34061
       O    14.82515    1.06812   -2.16503
      H1    13.89772    1.15491   -2.49656
       H    17.11713   -7.31491   -4.43743
       O    16.86192   -7.02109   -5.34467
      H1    16.00460   -7.39077   -5.51220
       H    13.77406   -3.71607   -6.36804
       O    13.84476   -2.78396   -6.07582
      H1    14.27311   -2.32524   -6.82583
       H    15.39235   -6.22392   -4.36892
       O    14.67114   -5.92615   -3.80485
      H1    14.90161   -6.26085   -2.93180
       H    15.11605   -1.93069   -9.25470
       O    15.06326   -1.27389   -8.51422
      H1    15.88122   -1.44325   -7.98479
       H    17.02863   -2.36921   -4.72171
       O    17.28481   -1.46830   -5.03055
      H1    18.18730   -1.39883   -4.65699
       H    14.46036   -5.07785   -7.85671
       O    13.77328   -5.25016   -7.19185
      H1    13.87829   -6.17223   -6.95320
       H    18.55204   -5.16316   -7.69544
       O    18.12164   -6.00398   -7.97060
      H1    17.85857   -6.36319   -7.08681
       H    13.11454   -1.62478   -1.05684
       O    14.04308   -1.62752   -0.83753
      H1    14.47953   -1.97337   -1.63304

