60
frame 3 | Written by MDAnalysis XYZWriter (release 2.4.3)
       H    17.41175  -11.18078  -17.09467
       O    18.23323  -11.42154  -16.62063
      H1    18.59763  -10.56292  -16.33576
       H    16.73848   -6.67725  -18.90671
       O    17.37030   -7.33850  -18.85274
      H1    17.79968   -7.04451  -18.03391
       H     9.73982  -15.59917  -17.20230
       O    10.55127  -15.67289  -16.65074
      H1    11.23526  -15.30306  -17.27324
       H    16.38928  -13.62574  -15.19103
       O    15.45646  -13.66363  -14.92175
      H1    15.24915  -14.56784  -14.73882
       H    10.08190  -13.01397  -18.23870
       O     9.62471  -13.41152  -18.96664
      H1     8.70638  -13.14717  -18.82015
       H    13.86037  -16.57285  -15.11449
       O    14.57064  -16.23381  -14.55673
      H1    14.30391  -16.52175  -13.61029
       H    19.25902  -13.16970  -15.33064
       O    19.06121  -13.94665  -14.80686
      H1    19.80743  -14.16410  -14.22666
       H    11.80302   -8.56824  -17.44014
       O    12.46516   -9.29929  -17.51387
      H1    12.72631   -9.25761  -18.41329
       H    15.76837  -12.80356  -18.79859
       O    15.84717  -13.65677  -19.28230
      H1    15.76120  -14.41593  -18.69343
       H    15.79441  -10.27839  -17.88512
       O    16.01885  -11.08259  -18.30076
      H1    16.67307  -10.88663  -18.96025
       H    18.66548   -9.24153  -14.96443
       O    19.12676   -9.07076  -15.80637
      H1    18.95293   -8.13368  -16.11340
       H    12.41507  -14.18525  -18.92774
       O    12.51022  -15.07207  -18.56138
      H1    13.43317  -15.16627  -18.27489
       H    18.21845  -16.35537  -17.76758
       O    17.68813  -17.08414  -18.12832
      H1    17.79043  -17.74357  -17.39334
       H    14.52141   -9.44294  -15.38186
       O    14.42953   -9.79946  -14.50274
      H1    13.87809  -10.58823  -14.63085
       H    12.37923  -12.23596  -14.83882
       O    13.01113  -12.45749  -14.10909
      H1    13.75154  -12.69366  -14.67612
       H    19.37059  -14.60474  -16.53965
       O    19.33750  -15.14645  -17.30862
      H1    19.11789  -14.74783  -18.20280
       H    14.21408   -8.54709  -17.32462
       O    15.11336   -8.64726  -16.97571
      H1    15.34236   -7.69992  -16.84049
       H    18.00370  -12.47732  -11.91662
       O    17.22348  -12.46712  -12.46315
      H1    17.36261  -13.04337  -13.23238
       H    10.76334  -11.02822  -15.91728
       O    11.37342  -11.61857  -16.39090
      H1    11.85605  -10.97416  -16.94462
       H    15.26841  -15.52423  -16.74479
       O    15.32127  -15.88787  -17.63064
      H1    16.16896  -16.34557  -17.69600

