60
frame 1 | Written by MDAnalysis XYZWriter (release 2.4.3)
       H   -12.60713    0.24517   10.07842
       O   -11.99973    0.02123   10.79294
      H1   -12.48838    0.32777   11.58318
       H    -8.54105    0.04084    9.66084
       O    -9.29989   -0.45041    9.35884
      H1   -10.08213    0.03329    9.76712
       H   -16.61840    4.90866    5.02080
       O   -16.35300    5.44621    5.77245
      H1   -16.06900    4.79730    6.43279
       H    -8.40733    3.25543    9.82044
       O    -8.16361    3.52737    8.91842
      H1    -8.79237    3.14681    8.32388
       H   -11.70005    4.18918    8.57536
       O   -12.13610    3.44390    8.11257
      H1   -12.63903    3.95007    7.42028
       H    -9.69027    6.01199    7.19195
       O    -9.29702    6.22587    6.33092
      H1    -9.15175    5.37679    5.94745
       H   -15.16273    3.22218   11.28452
       O   -15.92370    2.77607   11.70703
      H1   -16.04981    1.97756   11.19402
       H   -10.87878    6.44912    9.64712
       O   -10.12597    5.95758    9.29504
      H1    -9.36907    6.46337    9.59630
       H   -15.92557    0.87034    6.63005
       O   -15.10033    1.31260    6.68410
      H1   -14.42753    0.70029    6.39699
       H   -12.71096    4.31226    5.52740
       O   -13.18820    4.97459    6.02860
      H1   -13.89004    5.23133    5.40642
       H   -10.89656    2.93531    5.03008
       O   -11.79957    2.76137    4.71621
      H1   -11.93745    1.88018    5.06780
       H   -15.78668    4.38069    8.80753
       O   -16.53521    3.87466    8.46621
      H1   -16.31686    2.96729    8.61550
       H   -12.80118    7.83362    9.00276
       O   -12.44068    7.54798    9.84209
      H1   -11.76011    8.24078   10.04852
       H   -13.42229    6.48160   11.29626
       O   -14.12766    5.83895   11.43884
      H1   -14.57208    6.03833   12.27878
       H   -11.41571    1.40408    8.36195
       O   -11.28363    0.58938    7.86679
      H1   -10.48865    0.16511    8.21158
       H   -13.07124    3.84423   10.07420
       O   -13.10307    3.11232   10.68306
      H1   -12.95609    3.55904   11.51486
       H   -10.74276    1.60762   11.08241
       O   -10.47546    2.21174   10.39771
      H1   -11.19663    2.82174   10.27568
       H   -14.91720    1.38053    8.47227
       O   -15.08636    1.33100    9.42636
      H1   -14.47393    1.96659    9.80014
       H   -12.41292   -0.25264    6.82175
       O   -13.05318   -0.76609    6.33783
      H1   -12.53162   -1.25592    5.69794
       H   -13.95917    5.96137    8.09417
       O   -14.55322    5.54533    8.74032
      H1   -14.28981    5.87648    9.59380

