60
frame 1 | Written by MDAnalysis XYZWriter (release 2.4.3)
       H   -10.92307   10.50888   -2.11745
       O   -11.57612   10.36012   -2.83337
      H1   -11.99996    9.54929   -2.55451
       H    -8.87103   11.23255   -2.02233
       O    -9.41249   10.92280   -1.27531
      H1    -9.15871   11.48360   -0.51273
       H   -12.26179    6.19424   -1.13826
       O   -12.40165    5.31173   -0.78984
      H1   -11.60109    4.82747   -1.09831
       H   -16.04069   10.01569   -2.06573
       O   -15.57901   10.45455   -1.31857
      H1   -14.83356   10.87933   -1.77478
       H    -7.92559    8.41883   -1.15903
       O    -7.14904    8.76629   -0.73424
      H1    -6.75963    8.01942   -0.23579
       H   -12.07548    6.59819    4.62535
       O   -12.49761    7.47924    4.66419
      H1   -12.63746    7.76716    3.73513
       H    -8.51483    8.23884    2.89347
       O    -8.33243    7.65455    3.63802
      H1    -8.70529    8.11897    4.39242
       H   -15.97015    7.74510    2.52357
       O   -15.14979    7.43129    2.15759
      H1   -15.10127    6.57757    2.56067
       H   -12.74605   11.46496   -2.07603
       O   -13.49247   12.00605   -1.78521
      H1   -13.06338   12.57452   -1.16412
       H   -13.65069   10.09318    3.25371
       O   -13.17839    9.39910    2.79630
      H1   -13.86088    8.82220    2.44883
       H   -11.70261    9.69866    3.80481
       O   -10.77943    9.64838    4.01975
      H1   -10.29805    9.69615    3.16648
       H    -8.86110   10.04464    1.40194
       O    -9.25381    9.20069    1.61101
      H1    -9.88184    8.99388    0.90967
       H   -16.03591    6.79140   -2.55722
       O   -15.15309    6.43000   -2.42255
      H1   -14.76813    6.96591   -1.71761
       H   -14.80757    7.92277    0.56211
       O   -14.43777    8.18208   -0.33015
      H1   -14.92698    8.96850   -0.56884
       H   -12.64680    9.81526    0.10856
       O   -11.76950    9.47443    0.31774
      H1   -11.94534    9.32370    1.26725
       H   -11.30505   13.54173    1.67118
       O   -10.98011   13.91434    0.80847
      H1   -10.10973   13.52394    0.70609
       H   -12.26028    8.27337   -1.05982
       O   -12.04778    7.84949   -1.90858
      H1   -11.13525    8.04429   -2.12162
       H   -11.87957    3.94688    1.63238
       O   -11.76937    4.89340    1.68767
      H1   -12.10369    5.25185    0.88501
       H    -8.51972    6.83340   -2.50957
       O    -9.00311    7.65731   -2.68147
      H1    -8.84053    7.89266   -3.59432
       H   -17.14548   10.33455    1.24753
       O   -16.18131   10.17764    1.35952
      H1   -15.78616   10.48309    0.51918

