60
frame 2 | Written by MDAnalysis XYZWriter (release 2.4.3)
       H     2.95557  -12.84379    1.96269
       O     3.12274  -11.99246    1.56335
      H1     4.04609  -11.83819    1.76099
       H     1.10099   -7.86594   -5.63675
       O     2.01323   -8.14513   -5.53934
      H1     2.10610   -8.97288   -6.03550
       H     0.39865   -8.35571   -3.39951
       O     0.34681   -7.73819   -2.65319
      H1     1.15299   -7.25759   -2.77644
       H     1.05842  -10.75065    0.61545
       O     0.31226  -11.31312    0.45792
      H1    -0.29898  -10.66649    0.12976
       H     0.63276  -13.60173   -1.03481
       O    -0.22749  -13.92702   -0.72565
      H1    -0.65495  -13.09217   -0.50533
       H     3.50807  -13.88396   -5.06297
       O     2.60845  -13.77563   -4.71826
      H1     2.69452  -13.44247   -3.81553
       H     7.20864  -11.84223   -3.09899
       O     6.58510  -12.23847   -2.48415
      H1     5.88724  -11.55887   -2.44224
       H     2.05439   -5.36445   -2.98779
       O     2.48108   -6.17763   -2.70527
      H1     2.45581   -6.11122   -1.73865
       H    -2.63354   -9.70430   -0.44533
       O    -1.69374   -9.49994   -0.53784
      H1    -1.65142   -8.63835   -0.08599
       H     0.90209  -13.51744    1.21734
       O     0.66865  -14.04974    1.99251
      H1     0.01972  -13.49645    2.44231
       H     0.65142  -10.29896   -2.38838
       O     1.59922  -10.41708   -2.17379
      H1     2.03552   -9.93584   -2.84491
       H     1.21444  -13.18589   -6.03488
       O     0.47938  -12.86389   -6.50988
      H1     0.84021  -12.65694   -7.38215
       H     3.89360  -10.58268   -0.45895
       O     4.34553  -10.94345   -1.24927
      H1     4.16530  -10.26735   -1.92225
       H    -1.57694  -10.83208   -3.40460
       O    -1.36141   -9.88094   -3.38441
      H1    -1.37284   -9.67533   -2.43551
       H     4.16916   -8.26878   -2.98806
       O     4.11215   -9.01481   -3.58586
      H1     3.69625   -8.67413   -4.35704
       H     1.47820   -8.06048   -0.22879
       O     1.85398   -8.95237   -0.10448
      H1     1.59328   -9.38364   -0.92721
       H    -0.86233  -12.33246   -5.37743
       O    -1.38729  -12.32406   -4.57601
      H1    -0.76056  -12.82500   -4.00790
       H     2.37156  -12.48613   -1.70513
       O     2.21338  -13.45735   -1.81984
      H1     2.80467  -13.89577   -1.20369
       H     4.55794   -7.43529    0.31455
       O     4.46032   -8.39501    0.21090
      H1     3.50977   -8.61420    0.33627
       H    -1.47194   -6.26130    0.56270
       O    -0.89708   -7.01030    0.67634
      H1    -0.13167   -6.73693    0.16699

