60
frame 2 | Written by MDAnalysis XYZWriter (release 2.4.3)
       H   -18.86906   17.84477  -15.98262
       O   -18.79718   17.05410  -16.54085
      H1   -18.27665   16.44420  -16.03172
       H   -15.16152   15.57773   -9.88494
       O   -15.85550   15.48400  -10.53483
      H1   -15.41995   15.18558  -11.33898
       H   -18.19066   17.69969  -11.49268
       O   -18.49912   17.76424  -12.39094
      H1   -17.69086   17.72031  -12.89567
       H   -14.44041   15.46788  -15.53887
       O   -14.62437   16.40764  -15.36977
      H1   -15.41228   16.38456  -14.82101
       H   -13.25083   14.30157  -16.56828
       O   -13.66181   13.97216  -15.72669
      H1   -12.92137   14.00490  -15.08683
       H   -15.39657    8.82804  -10.57033
       O   -15.66210    8.99381  -11.50607
      H1   -15.04254    9.60081  -11.93311
       H   -16.83823   13.03009  -14.11705
       O   -16.29977   13.83541  -14.34116
      H1   -15.46636   13.74399  -13.85885
       H   -14.50476    9.11777  -15.82666
       O   -14.65985    8.17432  -15.70768
      H1   -14.40419    8.01098  -14.79863
       H   -15.06203   17.86488  -18.25200
       O   -15.80690   17.54085  -17.74266
      H1   -15.43587   17.07628  -16.97129
       H   -13.29929   14.77532  -12.57230
       O   -13.99663   15.36938  -12.81844
      H1   -13.76369   15.60798  -13.72479
       H   -14.40372   11.89095  -15.75468
       O   -14.59044   11.01700  -16.01753
      H1   -15.40547   11.07487  -16.55741
       H   -15.90706   18.20502  -12.74979
       O   -16.03310   17.77747  -13.59877
      H1   -16.04848   18.52638  -14.25245
       H   -18.46900   14.23654  -15.84049
       O   -17.70402   14.41458  -16.41135
      H1   -16.92720   14.18139  -15.86486
       H   -17.90780   11.33904  -11.95005
       O   -16.95129   11.31482  -11.75809
      H1   -16.81884   10.36701  -11.55390
       H   -17.35504   10.26246  -17.69429
       O   -17.21045   11.07970  -17.21072
      H1   -17.48495   10.90324  -16.27515
       H   -12.08559   10.61809  -14.25474
       O   -12.31301   11.55453  -14.42105
      H1   -11.47647   11.97332  -14.13450
       H   -14.44040   12.33853  -10.23717
       O   -15.12931   11.71578   -9.92174
      H1   -15.77703   11.62835  -10.63107
       H   -14.17580   11.27419  -11.63135
       O   -13.65860   10.70315  -12.18896
      H1   -13.31584   11.21176  -12.95590
       H   -17.37835   10.69481  -13.90709
       O   -17.88392   11.13590  -14.60191
      H1   -18.73709   10.67667  -14.70697
       H   -16.62350   14.09601  -17.88952
       O   -16.13969   13.75580  -18.64585
      H1   -16.31438   12.80295  -18.59404

