60
frame 1 | Written by MDAnalysis XYZWriter (release 2.4.3)
       H   -15.90251   11.96748   11.44076
       O   -15.59438   11.88076   10.53621
      H1   -15.20163   11.01855   10.56246
       H   -14.02896   12.47942    9.81489
       O   -13.25083   13.03044    9.76712
      H1   -13.14452   13.20580    8.81307
       H   -14.10701    7.65874    5.15995
       O   -15.02747    7.86957    5.41329
      H1   -15.29026    7.06917    5.82498
       H   -13.93581   12.43471    6.94860
       O   -12.99789   12.64311    7.04000
      H1   -12.58043   11.80707    6.84535
       H   -16.93924   15.54079    4.12652
       O   -16.05044   15.94111    4.18957
      H1   -15.79276   16.15495    3.26646
       H   -15.14675   16.35757    7.85271
       O   -14.81616   16.00985    8.69533
      H1   -15.57989   15.58702    9.05781
       H   -18.36854   11.54563   10.98382
       O   -18.26661   10.90392   10.30037
      H1   -17.28062   10.89073   10.19181
       H   -14.56602   14.64666    2.35915
       O   -14.91465   14.35001    1.52314
      H1   -15.43342   13.57171    1.75033
       H   -14.52102   15.00723    4.81517
       O   -13.57222   14.86942    4.70595
      H1   -13.32892   14.64401    5.59055
       H   -18.68287   12.51065    6.95771
       O   -18.26156   12.93198    6.20187
      H1   -17.32755   12.69126    6.33253
       H   -16.40388   11.59458    2.51500
       O   -16.53921   12.42255    2.98207
      H1   -17.50812   12.40696    3.13136
       H   -17.75576    8.13075    4.20980
       O   -17.15190    8.69947    3.76520
      H1   -16.30360    8.54993    4.20906
       H   -17.95898    9.80373    4.91025
       O   -18.27105   10.05393    5.79534
      H1   -18.24118   11.00969    5.76183
       H   -16.77119   13.87139    9.77311
       O   -17.02459   14.74182   10.11933
      H1   -16.45916   14.95131   10.87013
       H   -18.70149   15.45049    5.35591
       O   -18.54437   15.40400    4.40472
      H1   -18.87733   16.24082    4.05837
       H   -16.59112   17.12508    5.49216
       O   -16.51665   17.58780    6.36356
      H1   -17.41531   17.47803    6.70630
       H   -17.42644    9.64274    7.25705
       O   -16.68688    9.60627    7.89282
      H1   -17.06745    9.06989    8.57633
       H   -16.05161   11.04946    6.87040
       O   -15.75368   11.93807    6.71840
      H1   -15.22622   11.80707    5.92824
       H   -15.12634   11.63277    3.99886
       O   -14.24824   11.35875    4.35016
      H1   -13.65884   12.05750    4.06439
       H   -14.37384    9.16583    8.25407
       O   -13.67062    8.75126    7.72752
      H1   -14.16907    8.53673    6.90254

