60
frame 1 | Written by MDAnalysis XYZWriter (release 2.4.3)
       H   -12.60713    0.24517   10.07842
       O   -11.99973    0.02123   10.79294
      H1   -12.48838    0.32777   11.58318
       H    -8.54105    0.04084    9.66084
       O    -9.29989   -0.45041    9.35884
      H1   -10.08213    0.03329    9.76712
       H   -11.33789    3.64111   12.97062
       O   -11.79535    4.48241   12.82438
      H1   -12.50554    4.57490   13.49648
       H   -11.70005    4.18918    8.57536
       O   -12.13610    3.44390    8.11257
      H1   -12.63903    3.95007    7.42028
       H   -11.41735   -3.21148   12.48090
       O   -10.98478   -2.47197   12.05389
      H1   -11.15695   -2.60329   11.08034
       H   -15.16273    3.22218   11.28452
       O   -15.92370    2.77607   11.70703
      H1   -16.04981    1.97756   11.19402
       H   -12.34265   -1.41642   12.78591
       O   -13.00962   -0.78677   13.05093
      H1   -12.80433   -0.57300   13.97158
       H   -14.70339   -2.17255    8.46064
       O   -13.73430   -2.23629    8.46774
      H1   -13.58449   -1.84953    7.59777
       H   -10.74260    0.07052   13.60123
       O   -10.23441   -0.66603   13.94069
      H1   -10.28133   -1.35333   13.26153
       H   -15.09356    2.13044   13.37409
       O   -14.62516    1.85021   14.19835
      H1   -13.89197    1.29044   13.95059
       H   -11.41571    1.40408    8.36195
       O   -11.28363    0.58938    7.86679
      H1   -10.48865    0.16511    8.21158
       H   -13.07124    3.84423   10.07420
       O   -13.10307    3.11232   10.68306
      H1   -12.95609    3.55904   11.51486
       H   -11.72294   -4.72212    9.84247
       O   -11.75600   -3.77627    9.71343
      H1   -12.68650   -3.55340    9.65791
       H   -10.74276    1.60762   11.08241
       O   -10.47546    2.21174   10.39771
      H1   -11.19663    2.82174   10.27568
       H    -7.84344    2.18840   13.48624
       O    -8.02487    1.23793   13.35015
      H1    -7.70689    1.07153   12.44984
       H   -14.35580   -1.36696   11.92421
       O   -15.17145   -1.78000   11.65281
      H1   -15.20385   -1.61795   10.71298
       H   -14.91720    1.38053    8.47227
       O   -15.08636    1.33100    9.42636
      H1   -14.47393    1.96659    9.80014
       H   -11.03154    2.06835   14.06411
       O   -10.89603    1.99297   13.11369
      H1    -9.94427    1.80163   13.10661
       H    -8.67094   -2.14404    9.18421
       O    -8.43684   -3.03263    8.85329
      H1    -9.29505   -3.43063    8.62337
       H   -12.41292   -0.25264    6.82175
       O   -13.05318   -0.76609    6.33783
      H1   -12.53162   -1.25592    5.69794

