60
frame 0 | Written by MDAnalysis XYZWriter (release 2.4.3)
       H     1.12583   -9.58123   -8.66137
       O     1.61427   -9.78973   -9.48626
      H1     1.75377   -8.93458   -9.87986
       H     3.26606  -13.90008  -16.05622
       O     3.72325  -14.39377  -16.73057
      H1     3.46645  -15.28080  -16.54333
       H     3.31464  -10.35565  -10.04387
       O     4.09558  -10.84407  -10.41578
      H1     4.37850  -11.33941   -9.65832
       H     1.20140  -15.33646  -13.85646
       O     1.31153  -16.05943  -13.21281
      H1     0.41235  -16.29053  -12.93544
       H     4.60338   -8.03920  -11.64626
       O     5.14339   -8.08224  -10.84864
      H1     5.09593   -9.01210  -10.61426
       H    -0.92398  -11.36468  -13.80255
       O    -1.59341  -10.91249  -14.37783
      H1    -1.66836  -11.49153  -15.16414
       H     0.89457  -12.07004  -12.67122
       O     0.04684  -12.42859  -12.94836
      H1    -0.38576  -12.66094  -12.10660
       H     6.75006  -12.09679  -11.69554
       O     7.18767  -12.64878  -11.01743
      H1     7.76352  -13.20785  -11.52957
       H     2.87406  -12.99162  -12.16174
       O     2.92022  -12.03825  -12.32286
      H1     3.45036  -11.72483  -11.58978
       H    -0.51739  -12.58831   -8.36972
       O     0.20627  -12.76127   -8.92938
      H1     0.77750  -11.98888   -8.77824
       H     5.34890   -9.51147  -15.86429
       O     4.76308  -10.25748  -15.83141
      H1     5.25306  -10.91851  -16.33761
       H     2.40498  -15.33631  -12.06207
       O     3.01217  -14.91979  -11.43437
      H1     3.82955  -15.36702  -11.65779
       H     1.26245  -14.27943   -8.79171
       O     2.05648  -14.85374   -8.76101
      H1     2.25842  -14.88737   -9.74072
       H     4.70453  -13.24353   -8.30458
       O     4.68887  -14.21842   -8.24596
      H1     3.76689  -14.44607   -8.41767
       H     6.07461  -10.46817  -13.49992
       O     5.93959  -10.93956  -12.67527
      H1     5.05403  -11.32017  -12.72977
       H     3.32540  -10.06046  -14.91677
       O     2.52247  -10.00348  -14.40746
      H1     2.65135  -10.68254  -13.73465
       H     2.99586   -8.69062  -13.15595
       O     3.37249   -7.81798  -12.97479
      H1     2.65414   -7.22830  -13.16813
       H     6.33237  -14.22865  -10.80758
       O     6.23916  -15.10130  -10.40775
      H1     5.75643  -14.96741   -9.58793
       H     1.00126  -13.30874  -14.45915
       O     1.46624  -13.34423  -15.27183
      H1     0.80979  -13.56593  -15.93215
       H     1.50411  -10.87323  -16.26413
       O     1.41383  -10.83768  -17.21802
      H1     0.83111  -10.07706  -17.26639

