60
frame 2 | Written by MDAnalysis XYZWriter (release 2.4.3)
       H    -6.03333   16.48787  -12.40102
       O    -5.29788   17.08002  -12.59287
      H1    -5.65856   17.58949  -13.32585
       H    -6.59279   15.70206  -10.19874
       O    -6.56771   15.29016  -11.05926
      H1    -6.62574   14.33785  -10.83318
       H    -7.57930   19.26388  -14.69488
       O    -7.46401   18.39125  -14.30185
      H1    -7.75439   18.55024  -13.40373
       H    -9.92844   18.30392   -7.01384
       O   -10.12330   17.47675   -7.48445
      H1   -10.82091   17.77716   -8.10374
       H    -6.24898   13.41020  -13.35497
       O    -6.89997   12.70609  -13.27940
      H1    -7.58632   13.10797  -12.74070
       H   -11.35122   15.32061  -14.42467
       O   -10.95658   14.46515  -14.56323
      H1   -10.54241   14.56811  -15.43578
       H    -8.46877   18.69599  -10.75336
       O    -7.50064   18.67716  -10.76594
      H1    -7.25108   18.01807  -10.10884
       H    -8.20962   17.21561   -8.15666
       O    -7.37410   16.95964   -8.55584
      H1    -6.77876   16.87073   -7.81960
       H   -12.17528   12.87276  -11.41916
       O   -12.76485   13.31926  -10.82500
      H1   -12.50329   12.90575   -9.96761
       H   -12.21374   15.02549   -9.88185
       O   -11.66544   15.59691   -9.34965
      H1   -10.81806   15.63598   -9.79371
       H    -8.10625   14.26126   -6.78967
       O    -8.12513   14.02448   -7.74722
      H1    -9.02646   13.71986   -7.85777
       H   -13.29929   14.77532  -12.57230
       O   -13.99663   15.36938  -12.81844
      H1   -13.76369   15.60798  -13.72479
       H   -14.24895   18.65660  -12.67628
       O   -13.75782   18.04687  -12.09135
      H1   -14.04725   17.13164  -12.37902
       H   -10.79033   18.63926  -11.23405
       O   -10.64518   18.08881  -12.01279
      H1   -11.50275   17.70295  -12.28048
       H    -9.79951   16.87195  -11.37386
       O    -9.67721   15.96602  -11.02654
      H1    -8.72712   15.80867  -11.05444
       H   -10.00886   16.87088  -16.51032
       O    -9.99177   17.72996  -16.05984
      H1    -9.05186   17.81470  -15.76262
       H   -13.86667   17.79471   -9.96038
       O   -13.12047   17.77943   -9.31085
      H1   -12.65749   16.96793   -9.59550
       H   -11.22194   17.35830  -14.66469
       O   -11.98609   17.00574  -14.15969
      H1   -12.74684   17.60929  -14.38242
       H   -11.34094   13.09691   -7.79285
       O   -10.77805   13.73743   -7.35392
      H1   -10.88332   14.47704   -7.95027
       H    -9.74527   14.20161  -11.56117
       O    -9.69992   13.38092  -12.07020
      H1    -9.95131   13.65444  -12.96787

