60
frame 1 | Written by MDAnalysis XYZWriter (release 2.4.3)
       H     0.63258  -13.36400    8.73815
       O     1.00725  -13.19199    9.60757
      H1     1.37539  -14.03248    9.86611
       H    -0.26676  -13.44760   12.13879
       O    -0.85933  -12.71256   11.96109
      H1    -0.45510  -12.30497   11.15427
       H    -5.96538   -9.03251    9.36943
       O    -5.07253   -9.10324    9.77116
      H1    -4.69322   -8.23089    9.60659
       H    -4.25098  -15.42628    9.04768
       O    -5.05271  -15.38250    8.52396
      H1    -5.55802  -14.63395    8.93798
       H    -7.16807  -11.00522   12.19009
       O    -6.49904  -11.39177   11.57617
      H1    -6.46936  -12.32412   11.73717
       H    -3.02184   -9.19186    6.74091
       O    -2.81968  -10.12273    6.55001
      H1    -3.36599  -10.60939    7.17791
       H    -5.49189  -13.74253    6.22777
       O    -5.34127  -14.64448    5.95801
      H1    -5.00126  -15.10140    6.73817
       H    -3.23586   -9.33020   11.83086
       O    -2.27361   -9.52280   11.85179
      H1    -1.98382   -9.28555   10.95715
       H    -2.58617  -13.41670   10.62463
       O    -2.42918  -13.78598    9.74218
      H1    -2.87420  -13.08629    9.17127
       H    -1.15361  -13.18457    6.91373
       O    -0.29677  -12.91243    7.26122
      H1     0.32532  -12.82330    6.52561
       H    -3.64945  -18.05868   12.83578
       O    -3.44735  -17.13124   12.81178
      H1    -3.40026  -16.87427   11.86092
       H     0.08899  -15.90024    7.85904
       O    -0.57687  -15.72237    8.53340
      H1    -0.57757  -14.76219    8.63908
       H    -4.18135  -10.96741    9.30360
       O    -4.14469  -11.80090    8.79534
      H1    -5.04846  -11.95895    8.53674
       H    -4.32284  -11.45332   12.29364
       O    -3.63614  -12.09217   12.45982
      H1    -2.81356  -11.57285   12.52012
       H    -5.10724  -14.49615   11.25393
       O    -5.45030  -13.69639   10.85286
      H1    -4.77119  -13.05904   10.96626
       H    -5.81193  -11.78054    5.52267
       O    -5.92149  -12.05120    6.43178
      H1    -6.84404  -12.23098    6.61175
       H    -2.18638  -16.92439    9.93517
       O    -2.86619  -16.35573   10.32518
      H1    -2.64861  -15.43574   10.01559
       H    -7.34443  -12.24517    9.79887
       O    -7.55381  -12.08214    8.88268
      H1    -7.91453  -12.91520    8.58835
       H    -1.11268  -10.19830    6.92429
       O    -0.22189  -10.11721    7.31769
      H1     0.07853  -11.02993    7.30943
       H    -0.31322   -9.63739    8.99985
       O    -0.16237   -9.27938    9.88139
      H1     0.66389   -8.78505    9.79099

