60
frame 1 | Written by MDAnalysis XYZWriter (release 2.4.3)
       H   -13.10760   13.03538   -4.48663
       O   -13.95220   12.64421   -4.29323
      H1   -13.96493   12.52284   -3.32328
       H   -16.54064   15.22841   -7.41001
       O   -16.71970   15.02020   -8.33832
      H1   -15.98791   14.44436   -8.52208
       H   -14.63587   11.14588   -5.00149
       O   -15.11979   10.44332   -5.45646
      H1   -15.89191   10.86840   -5.87084
       H    -9.00734   11.42294   -7.82673
       O    -9.59548   12.18925   -7.98032
      H1   -10.47828   11.86143   -7.75314
       H   -16.64742   13.07437   -5.71718
       O   -17.13061   12.35669   -6.14882
      H1   -17.34157   12.61717   -7.05095
       H   -15.92132    9.24756  -11.31038
       O   -15.44918    9.71502  -12.00232
      H1   -14.59823    9.97408  -11.65294
       H   -14.01577    9.81601   -6.83033
       O   -13.24477    9.76423   -7.40211
      H1   -12.50887    9.40844   -6.84402
       H   -14.27088   13.16902  -13.11967
       O   -15.08039   13.70684  -13.15351
      H1   -15.74757   13.05585  -12.90556
       H   -10.98478   12.83055  -11.08625
       O   -11.21089   12.73897  -10.16225
      H1   -10.34574   12.55694   -9.72987
       H   -11.65883   14.32307   -9.23400
       O   -11.55733   15.21309   -8.86440
      H1   -10.59745   15.24847   -8.81207
       H   -13.04869   14.91289  -11.27948
       O   -13.98977   14.87466  -11.00720
      H1   -14.46209   14.54594  -11.79433
       H   -11.66251    9.75830  -10.48154
       O   -10.82832    9.25858  -10.48491
      H1   -10.17084    9.78886  -10.93644
       H   -15.74928   14.94147   -5.31435
       O   -15.12650   15.24221   -5.99215
      H1   -14.51383   14.50923   -6.08562
       H   -18.03700   11.67321  -12.40262
       O   -17.15043   11.87573  -12.08406
      H1   -16.73197   11.03069  -12.12664
       H   -13.96436   13.76359   -9.59391
       O   -14.45234   13.35732   -8.83874
      H1   -14.59869   12.41878   -9.04017
       H   -16.61461    8.13670   -7.30833
       O   -17.24119    8.84742   -7.52821
      H1   -17.59682    8.52877   -8.35687
       H   -12.97072   10.51988   -9.01424
       O   -13.17983   10.72283   -9.90022
      H1   -12.47799   11.36536  -10.15401
       H   -13.77732   16.69619   -9.79726
       O   -13.17584   17.30212   -9.36711
      H1   -12.41903   16.75798   -9.10109
       H   -12.80680   11.43698   -7.00172
       O   -12.38387   12.29023   -7.13338
      H1   -13.05967   12.77202   -7.64848
       H   -17.36412   11.55815   -9.88520
       O   -17.48674   11.57472   -8.94243
      H1   -17.31730   10.67444   -8.68750

