60
frame 2 | Written by MDAnalysis XYZWriter (release 2.4.3)
       H   -15.25662   17.92362   13.38255
       O   -14.68044   17.26241   13.01503
      H1   -14.56520   16.66727   13.77069
       H   -10.05321   18.74776   16.19307
       O    -9.84268   18.42843   15.27641
      H1   -10.70788   18.57072   14.82040
       H    -9.39433   15.80982    9.26151
       O   -10.21140   15.28384    9.19254
      H1   -10.32094   14.93807   10.05722
       H   -10.81475   17.51099    8.21789
       O   -11.53001   17.83638    7.66701
      H1   -11.49972   18.78764    7.73871
       H   -17.59728   15.71155   12.59094
       O   -17.04723   15.97706   11.85701
      H1   -16.23460   16.18869   12.33062
       H   -13.85808   12.71248   12.88225
       O   -14.37619   13.49696   12.71597
      H1   -13.98497   13.82632   11.91070
       H   -13.26057   14.66344   10.15418
       O   -12.77999   14.03929   10.71645
      H1   -12.28796   13.48545   10.07884
       H    -9.32466   14.60250   17.51054
       O    -9.47233   15.50662   17.27355
      H1    -9.94607   15.41491   16.46124
       H   -14.58761   15.33804   15.74996
       O   -14.08401   15.69641   15.02787
      H1   -13.91164   14.94606   14.45035
       H   -14.21903   17.14921    9.01003
       O   -13.33239   16.94196    9.36357
      H1   -12.70123   17.47995    8.94038
       H   -11.98349   17.28508   18.54067
       O   -11.37314   16.56153   18.78505
      H1   -10.96344   16.30703   17.95174
       H   -11.00988   14.62512   11.50239
       O   -10.13437   14.67311   11.87492
      H1   -10.00367   13.83774   12.35117
       H    -8.53641   16.50802   11.59562
       O    -8.09063   16.49330   10.75081
      H1    -7.99355   15.54116   10.56459
       H   -15.74424   13.44402   10.34680
       O   -15.87662   14.25098    9.84703
      H1   -16.18025   14.85521   10.52870
       H   -12.91570   17.47104   13.35390
       O   -12.04624   17.90327   13.35445
      H1   -11.74137   17.78308   12.48289
       H    -9.58304   17.11357   13.90521
       O    -8.99191   16.49600   13.41029
      H1    -9.61055   15.89989   12.95760
       H   -16.54947   18.02344   10.14266
       O   -15.67938   18.25122   10.44878
      H1   -15.42454   17.53463   11.03916
       H   -12.06656   13.93695   16.46220
       O   -11.71815   14.65711   15.93934
      H1   -12.45894   15.09451   15.52047
       H   -17.83460   17.08600   15.33475
       O   -18.02272   17.72660   16.02718
      H1   -18.70438   17.31342   16.53282
       H   -16.92721   16.18520   17.02639
       O   -16.44385   15.40593   16.73385
      H1   -16.40902   14.92173   17.58001

