60
frame 1 | Written by MDAnalysis XYZWriter (release 2.4.3)
       H     7.62262    2.33572   -4.48562
       O     7.15480    1.50527   -4.73282
      H1     6.68016    1.20469   -3.93793
       H     5.17932    3.55901   -9.95850
       O     4.87691    2.60742   -9.76233
      H1     5.26080    2.40538   -8.92069
       H     4.39149   -1.77467   -4.14149
       O     3.61754   -1.21465   -4.05236
      H1     3.22781   -1.12060   -4.91634
       H     6.52008    2.22448  -10.61834
       O     7.44944    2.27576  -10.39488
      H1     7.63900    1.40311  -10.03816
       H     4.26847   -0.19710   -9.56807
       O     4.55883   -0.95105   -9.06058
      H1     3.79972   -1.57021   -9.02825
       H     4.42812    2.00382   -5.92532
       O     3.89354    2.58297   -5.38631
      H1     4.51626    3.27966   -5.18997
       H     4.91948   -0.73379  -12.13724
       O     5.72506   -0.34677  -11.71787
      H1     5.67545   -0.57211  -10.78475
       H     2.55527    3.08140   -8.70638
       O     1.87852    2.37545   -8.63324
      H1     2.14045    1.72141   -9.28498
       H     5.50348    5.25140   -5.42023
       O     5.54268    4.68790   -4.64335
      H1     5.04991    5.14967   -3.96819
       H     6.36532    4.93615   -7.17686
       O     5.62522    5.42289   -7.55159
      H1     5.72920    5.26655   -8.47174
       H     6.63027   -2.60591   -4.66853
       O     6.03959   -2.51271   -3.90570
      H1     6.35137   -1.74652   -3.38217
       H     7.88974   -1.80171   -6.55135
       O     7.54756   -2.64653   -6.25080
      H1     8.30475   -3.20849   -6.35696
       H     3.33728    1.64506  -10.80217
       O     2.91747    0.79609  -10.59509
      H1     2.11285    0.82906  -11.15156
       H     6.09965    1.25726   -6.28420
       O     5.49355    0.98526   -7.00942
      H1     5.45030    0.03273   -6.89769
       H     8.08917    0.66621   -5.79552
       O     8.46219    0.00949   -6.40207
      H1     9.11094    0.54219   -6.87261
       H     0.98763   -0.40491   -6.59708
       O     1.38716   -0.49434   -5.70492
      H1     1.41499    0.45044   -5.39379
       H     2.91799    5.56483   -8.75866
       O     3.09581    4.85902   -8.16534
      H1     4.05278    4.92763   -8.02085
       H     7.60493    4.02651   -5.08213
       O     7.84342    4.16471   -6.03369
      H1     8.76283    3.80867   -6.08869
       H     7.21014    0.03732   -8.41012
       O     7.37946   -0.34687   -9.26445
      H1     7.20659   -1.28092   -9.10170
       H     3.28338    0.65826   -2.44330
       O     3.61951    1.53972   -2.50662
      H1     4.31438    1.46654   -3.19811

