60
frame 2 | Written by MDAnalysis XYZWriter (release 2.4.3)
       H     1.82835   17.68878  -17.26157
       O     1.32044   17.01949  -16.83349
      H1     0.38765   17.22040  -17.00781
       H     4.09782   13.87409  -14.12162
       O     3.79015   14.15763  -13.25365
      H1     3.14710   14.82744  -13.50601
       H     2.86953   14.94530   -9.54513
       O     2.77355   14.59536   -8.63736
      H1     3.56984   14.02038   -8.60874
       H    -0.21225   17.21476   -8.24302
       O     0.02899   17.80563   -7.50988
      H1    -0.70724   18.41379   -7.38108
       H     4.92590   15.74269  -12.60129
       O     5.63207   16.37790  -12.74047
      H1     6.02355   16.42702  -11.85475
       H    -1.75324   13.69319  -11.70328
       O    -0.91965   13.98919  -11.37474
      H1    -0.66234   14.70106  -12.00506
       H    -2.39797   18.23420  -14.50939
       O    -1.67709   17.95496  -15.07768
      H1    -1.10863   17.49282  -14.46131
       H     3.39870   16.67756   -7.98450
       O     3.97788   17.40623   -7.76243
      H1     3.38263   18.15796   -7.82545
       H     2.07913   16.23207  -12.07819
       O     2.24740   16.27001  -11.12789
      H1     2.90165   16.98990  -11.01959
       H     5.02229   13.27507  -10.05249
       O     5.00001   13.97471  -10.70358
      H1     4.54070   13.59940  -11.44368
       H     1.87113   12.93444   -9.24314
       O     1.65790   12.08865   -9.67613
      H1     1.79117   11.46809   -8.96343
       H     0.29401   16.52677  -10.49633
       O    -0.36847   16.34375   -9.81439
      H1    -0.68364   15.44805  -10.02230
       H     5.98001   16.33487   -9.00351
       O     6.26800   15.41042   -8.90780
      H1     5.87243   14.97848   -9.65591
       H     4.43418   18.11943  -10.35381
       O     3.83581   18.49518  -10.99624
      H1     3.51920   19.28267  -10.53609
       H     2.86402   11.93816  -13.53870
       O     3.56364   11.27691  -13.46814
      H1     3.14114   10.46323  -13.79951
       H    -2.99669   17.98933   -9.82794
       O    -2.11906   18.36505  -10.06864
      H1    -1.45327   17.66889  -10.04337
       H    -0.44691   17.15072  -12.63236
       O    -0.73881   16.27438  -12.87488
      H1     0.00084   15.94473  -13.41598
       H     1.42900   14.79859  -14.56486
       O     1.81907   15.59680  -14.16442
      H1     2.17005   16.02191  -14.94309
       H    -0.22671   12.80863  -14.06266
       O     0.34491   13.32340  -14.67316
      H1     0.69658   12.63097  -15.24346
       H     4.48367   17.01103  -15.77427
       O     4.08515   17.08366  -14.90656
      H1     4.78759   16.93101  -14.26977

