60
frame 1 | Written by MDAnalysis XYZWriter (release 2.4.3)
       H    10.79113  -11.24618   11.87156
       O    11.10947  -11.63972   12.71223
      H1    10.33382  -11.65804   13.27092
       H     9.19620  -14.13255   12.05209
       O     9.85603  -14.78148   11.80918
      H1     9.35258  -15.59444   11.65278
       H     7.41894  -14.80228   14.65540
       O     7.07282  -13.97301   14.90612
      H1     6.81149  -13.57354   14.04773
       H     5.95571  -10.79842   11.32377
       O     6.76070  -10.37184   11.67024
      H1     6.46847  -10.13651   12.52372
       H     5.20618  -15.42962   11.64591
       O     5.95855  -14.89047   11.38340
      H1     5.99761  -15.09173   10.45056
       H     8.41751   -7.81135   17.52352
       O     8.58702   -7.48052   16.63601
      H1     8.99493   -8.23771   16.20823
       H     8.26931  -16.44062   13.04326
       O     8.10715  -16.41350   13.99690
      H1     8.86914  -16.82979   14.38813
       H     6.85909  -11.99972   16.55271
       O     6.79647  -11.11742   16.94732
      H1     6.73829  -10.51378   16.21132
       H    10.94739  -14.54628   16.47697
       O    11.86471  -14.75937   16.23908
      H1    11.98215  -15.64986   16.66860
       H     8.98778  -14.45238   17.59169
       O     9.59177  -13.69708   17.65430
      H1    10.29971  -13.97164   18.23369
       H     4.65622   -9.88991   13.98274
       O     5.23341   -9.41490   14.57194
      H1     4.87288   -9.55326   15.45987
       H     7.52482  -12.02081   12.15590
       O     7.70896  -12.93646   12.40471
      H1     7.12953  -13.37985   11.79683
       H    11.52073  -10.16523   16.50207
       O    12.46406  -10.02922   16.68001
      H1    12.69668   -9.14700   16.36318
       H     8.59369  -12.65688   14.58632
       O     9.39752  -12.22045   14.85421
      H1     9.65928  -12.69803   15.67037
       H    10.11882   -9.04608   14.88718
       O     9.94071   -9.57648   15.67839
      H1     9.70269  -10.43517   15.33077
       H    10.67453  -15.62070   13.35886
       O    11.15836  -16.19420   13.96186
      H1    11.49529  -15.58506   14.64818
       H     8.65564  -16.66379   18.71653
       O     8.57125  -16.53061   17.76308
      H1     7.70989  -16.94716   17.56744
       H    11.83954  -12.58151   11.50229
       O    12.21270  -13.20331   10.83603
      H1    13.07191  -12.78024   10.62642
       H    13.29732  -11.98213   14.20953
       O    13.46427  -11.11679   13.80936
      H1    12.62698  -11.05669   13.33172
       H     4.41787  -11.68841   17.17469
       O     3.97774  -12.25509   17.82208
      H1     4.49398  -13.06393   17.75388

