60
frame 1 | Written by MDAnalysis XYZWriter (release 2.4.3)
       H   -11.29017  -13.47252   -6.48255
       O   -11.53067  -12.57828   -6.25693
      H1   -12.46466  -12.67778   -6.05063
       H   -13.07295   -6.70278   -4.43678
       O   -13.78805   -6.43839   -3.82200
      H1   -13.50794   -5.57478   -3.51148
       H   -12.13702   -7.76337   -6.33994
       O   -13.07344   -7.75943   -6.20755
      H1   -13.25183   -8.67567   -6.03803
       H    -5.60540  -10.07721   -4.29909
       O    -6.16366   -9.27890   -4.37664
      H1    -6.01278   -9.02475   -5.31235
       H   -12.47730  -10.78471   -3.64803
       O   -11.71917  -11.36143   -3.76300
      H1   -11.81739  -11.64476   -4.69280
       H    -8.05375  -12.74220   -3.60335
       O    -8.86374  -12.97313   -4.11646
      H1    -8.68537  -13.87951   -4.33860
       H   -14.00752  -10.52144   -6.68394
       O   -13.73603  -10.28419   -5.78515
      H1   -14.56564  -10.01091   -5.35407
       H   -10.86548  -10.17523   -2.35380
       O   -10.46626   -9.93762   -1.49851
      H1   -10.04269  -10.76278   -1.20789
       H    -8.86907   -7.03441   -0.25864
       O    -9.40077   -6.22147   -0.19242
      H1   -10.22093   -6.51710   -0.62778
       H   -12.66322  -10.28419   -1.37605
       O   -13.43869  -10.38396   -1.93488
      H1   -13.93765   -9.56918   -1.79378
       H   -11.20064  -12.96876   -3.09960
       O   -11.20200  -13.61751   -2.38519
      H1   -12.10662  -13.62250   -2.09085
       H   -10.47050   -9.91357   -3.96907
       O   -10.04200   -9.06325   -4.12711
      H1    -9.35144   -9.28649   -4.80826
       H    -8.17437   -5.23412   -2.87874
       O    -9.13572   -5.21957   -2.84210
      H1    -9.33158   -5.64151   -2.00699
       H   -11.98689   -8.01484   -1.60052
       O   -11.83082   -7.18577   -1.18357
      H1   -12.53534   -7.06112   -0.53459
       H   -11.27388  -11.08857   -7.42901
       O   -10.88102  -10.50423   -8.07175
      H1   -11.45043  -10.48428   -8.83926
       H    -8.66983   -9.61747   -2.29216
       O    -7.75080   -9.59813   -2.04450
      H1    -7.37372   -8.95906   -2.65542
       H   -10.32883   -8.88827   -6.85167
       O   -10.42482   -7.93030   -6.80012
      H1    -9.99095   -7.69852   -5.97116
       H    -7.77219   -7.00519   -5.41844
       O    -8.67274   -6.62602   -5.33492
      H1    -8.64731   -6.23875   -4.46513
       H    -7.46956  -10.45086   -5.21085
       O    -8.22151  -10.49830   -5.82177
      H1    -8.66151  -11.27348   -5.42388
       H    -6.15181  -12.24257   -2.71089
       O    -6.92666  -12.33705   -2.13041
      H1    -7.22194  -11.43391   -1.97282

