60
frame 1 | Written by MDAnalysis XYZWriter (release 2.4.3)
       H    -0.63882  -18.90828    1.67048
       O    -1.55249  -18.65347    1.47396
      H1    -1.45044  -17.82796    0.95349
       H    -6.63060  -18.14242    1.56903
       O    -7.53771  -18.16094    1.86659
      H1    -7.78824  -17.22886    1.79286
       H    -1.85089  -16.73477    2.85966
       O    -1.51890  -16.35220    3.69436
      H1    -2.18081  -15.67852    3.88503
       H    -5.49189  -13.74253    6.22777
       O    -5.34127  -14.64448    5.95801
      H1    -5.00126  -15.10140    6.73817
       H    -7.65126  -17.96594    6.22136
       O    -7.93197  -17.91110    5.29141
      H1    -8.48844  -18.69136    5.14609
       H     0.03145  -17.09655    3.65940
       O     0.86168  -17.59114    3.64049
      H1     0.50581  -18.44244    3.90135
       H    -2.49371  -14.50300    2.04863
       O    -2.60546  -14.88470    1.17677
      H1    -3.27840  -15.56981    1.34160
       H    -2.02721  -15.85632   -2.01867
       O    -1.93335  -15.48709   -2.90976
      H1    -2.76915  -15.70161   -3.34830
       H    -6.26172  -14.38791    1.91672
       O    -6.31815  -14.61154    2.85078
      H1    -6.02001  -15.51056    2.81511
       H    -3.93528  -14.32748    4.28656
       O    -3.13929  -14.12442    3.83880
      H1    -3.19519  -13.15840    3.81161
       H    -4.67365  -16.59328   -2.55011
       O    -4.45136  -16.54546   -3.48620
      H1    -4.06242  -17.39356   -3.69214
       H    -0.78622  -15.76147   -0.08393
       O    -0.86904  -16.67977   -0.33783
      H1    -0.03770  -16.87330   -0.81141
       H    -8.18030  -15.29607    0.18274
       O    -7.43232  -15.15387   -0.41123
      H1    -7.82767  -15.21701   -1.27786
       H    -2.63654  -13.02544    0.51835
       O    -2.32022  -12.11008    0.59719
      H1    -1.43024  -12.19934    0.23845
       H    -5.60920  -11.82429    0.71358
       O    -6.14195  -12.63093    0.85949
      H1    -6.11152  -13.07890   -0.01512
       H    -5.49765  -16.11436    4.75872
       O    -5.58714  -16.99970    4.37537
      H1    -6.51219  -17.19569    4.53741
       H    -4.95456  -18.58800    6.17709
       O    -4.19261  -18.60777    6.75591
      H1    -3.49071  -18.18089    6.25677
       H    -0.89500  -16.85274    6.67271
       O    -1.70306  -17.29166    6.35659
      H1    -1.70537  -17.13450    5.40664
       H    -4.20218  -15.02182   -0.58196
       O    -4.50751  -15.80977   -0.97883
      H1    -5.44010  -15.78362   -0.80360
       H    -4.40615  -17.57587    1.38080
       O    -4.02331  -17.06548    2.11970
      H1    -4.63406  -17.17045    2.84475

