60
frame 1 | Written by MDAnalysis XYZWriter (release 2.4.3)
       H     3.55879  -13.15561    1.52762
       O     3.99047  -12.68532    0.79943
      H1     4.70909  -12.22953    1.24535
       H     6.27147  -15.52742    4.16797
       O     6.70257  -16.20148    4.67040
      H1     7.56274  -15.80771    4.99132
       H     7.31841  -15.16207   -0.74279
       O     7.24341  -15.96440   -1.24843
      H1     8.08069  -16.09468   -1.71596
       H     5.90933  -18.23426   -0.20703
       O     5.55431  -18.87644   -0.82925
      H1     6.33129  -19.15082   -1.31549
       H    10.72355  -13.04440    1.13973
       O    10.95715  -12.28931    0.58997
      H1    10.48348  -11.57255    1.04813
       H     4.01826  -16.58631    4.79493
       O     3.96562  -16.47524    3.81663
      H1     4.66057  -17.10205    3.54117
       H     8.76715  -12.88606    3.01695
       O     9.54835  -13.37276    2.77081
      H1     9.23911  -14.25955    2.63312
       H    11.07982  -17.25412    0.95709
       O    10.24545  -17.50879    0.54162
      H1    10.31536  -17.04298   -0.30524
       H     4.81853  -14.14138    3.53697
       O     4.96619  -13.40755    4.15646
      H1     4.24539  -13.47124    4.80800
       H     6.11595  -13.66282    0.74686
       O     6.31966  -14.46613    1.18380
      H1     5.68322  -15.06874    0.79201
       H     8.23439  -11.88605    4.85641
       O     7.73944  -11.66322    4.06420
      H1     6.79854  -11.67340    4.36684
       H     8.47735  -14.44022   -2.94520
       O     8.21382  -14.45096   -3.84749
      H1     8.39755  -15.36707   -4.12792
       H    10.17927  -15.72721   -2.69478
       O     9.70824  -16.46123   -2.30748
      H1     9.72751  -17.10406   -3.05218
       H     4.34808  -16.89985    0.41384
       O     4.71922  -16.15591   -0.03091
      H1     5.16213  -16.57714   -0.74922
       H     8.94631  -16.17593    1.21269
       O     8.44511  -15.78136    1.92772
      H1     7.65107  -15.47115    1.45525
       H     8.43989  -13.29039    0.18176
       O     8.65082  -13.47588   -0.77920
      H1     9.62684  -13.41908   -0.77190
       H     6.03678  -19.11769    2.79211
       O     5.22969  -18.60784    2.53703
      H1     4.49666  -18.99284    3.02553
       H     9.28523  -18.64069    2.70841
       O     8.74749  -18.28049    3.42449
      H1     8.31588  -17.46724    3.09225
       H     6.83188  -11.49912   -0.33601
       O     6.74510  -11.72722    0.56989
      H1     6.56731  -10.89517    1.05465
       H     7.47717  -13.65392    6.39558
       O     6.66123  -13.16330    6.30463
      H1     6.38529  -13.39991    5.42095

