60
frame 1 | Written by MDAnalysis XYZWriter (release 2.4.3)
       H   -14.60359  -13.67254    2.42303
       O   -15.36606  -13.12954    2.26981
      H1   -15.34036  -12.75904    1.39429
       H   -13.77779   -5.03027    0.81550
       O   -14.08315   -4.17480    0.52933
      H1   -14.52048   -3.81953    1.34465
       H   -16.61254   -8.77674    0.03571
       O   -16.25260   -9.05917    0.87858
      H1   -15.95808   -9.94723    0.67725
       H   -12.11847  -11.83521    1.23421
       O   -12.77754  -11.22648    0.88535
      H1   -13.24830  -10.95091    1.69473
       H   -14.50937   -7.30632    0.27934
       O   -13.80074   -6.80481    0.65583
      H1   -13.82110   -7.10512    1.56333
       H   -17.02564   -7.41657    1.80835
       O   -17.80607   -6.87955    1.94972
      H1   -18.33731   -7.28058    2.64615
       H   -17.01361  -10.19148   -2.73366
       O   -17.06940   -9.23814   -2.76436
      H1   -16.86664   -9.05472   -3.66597
       H   -18.90411   -6.51489   -1.30310
       O   -18.87494   -7.08617   -0.51988
      H1   -18.31402   -6.64756    0.13401
       H   -13.68814   -7.70540    3.98008
       O   -14.39355   -7.87512    3.34372
      H1   -14.40852   -8.84815    3.30361
       H   -12.66322  -10.28419   -1.37605
       O   -13.43869  -10.38396   -1.93488
      H1   -13.93765   -9.56918   -1.79378
       H   -16.97053  -12.45615   -3.26251
       O   -17.01543  -12.04327   -2.40442
      H1   -17.87897  -12.28988   -2.10309
       H   -15.65959   -6.35969   -1.33480
       O   -16.00474   -5.59390   -0.86937
      H1   -15.25512   -5.22524   -0.39712
       H   -17.50509   -4.69253    0.52642
       O   -18.24547   -4.11560    0.78645
      H1   -18.24443   -4.05192    1.75418
       H   -15.65681   -8.35525   -2.26901
       O   -14.85943   -7.92553   -1.93005
      H1   -14.51297   -7.52585   -2.72263
       H   -11.98689   -8.01484   -1.60052
       O   -11.83082   -7.18577   -1.18357
      H1   -12.53534   -7.06112   -0.53459
       H   -16.46671  -11.70602    4.52540
       O   -17.40614  -11.46548    4.41836
      H1   -17.48540  -11.29467    3.46336
       H   -15.76455  -11.36790   -0.85341
       O   -15.36625  -11.51937    0.01909
      H1   -14.42320  -11.42552   -0.13555
       H   -14.58120  -11.58004    3.00824
       O   -14.23016  -10.72890    3.21671
      H1   -13.40411  -10.92065    3.67735
       H   -16.74355   -5.64564    3.29095
       O   -16.05073   -4.99555    3.53900
      H1   -16.07410   -4.98059    4.51313
       H   -15.96539  -13.25871   -1.54411
       O   -15.72989  -14.13658   -1.18955
      H1   -16.40592  -14.29871   -0.51209

