60
frame 0 | Written by MDAnalysis XYZWriter (release 2.4.3)
       H   -11.46601  -15.75430   -8.96746
       O   -11.40046  -15.96109   -9.89397
      H1   -12.16465  -16.53383  -10.04908
       H    -9.97704  -15.23147  -17.02179
       O   -10.64812  -14.95021  -16.39721
      H1   -10.43849  -15.39846  -15.57871
       H   -10.19832  -15.29140  -11.26140
       O   -10.03885  -14.91688  -12.12992
      H1    -9.10625  -15.07991  -12.32812
       H   -12.04099  -16.68082  -16.75892
       O   -13.00355  -16.82477  -16.74347
      H1   -13.22420  -16.78201  -15.80188
       H   -17.57085  -15.26138   -8.78427
       O   -16.99645  -14.48406   -8.62586
      H1   -16.36111  -14.51564   -9.36466
       H   -10.86499  -18.22133   -7.82941
       O   -10.25163  -18.11449   -8.55667
      H1   -10.55943  -17.33329   -9.05616
       H   -10.54315  -15.77146  -13.49656
       O   -10.82298  -16.38795  -14.17586
      H1   -10.51132  -17.24738  -13.76484
       H   -14.88784  -18.83275  -13.22124
       O   -15.36951  -18.66392  -14.01765
      H1   -15.18944  -17.71445  -14.19732
       H    -9.89754  -13.27623  -11.41780
       O    -9.62449  -12.59026  -10.78216
      H1    -8.73810  -12.42535  -11.10886
       H    -7.42948  -17.52234  -12.50183
       O    -7.57064  -16.57220  -12.28265
      H1    -7.72103  -16.12422  -13.10903
       H   -12.64058  -14.30348  -10.69311
       O   -12.85089  -13.40019  -10.92893
      H1   -13.77279  -13.38425  -10.79496
       H   -14.89647  -15.63205   -6.39948
       O   -15.39336  -16.44728   -6.22234
      H1   -15.28188  -16.97109   -7.05620
       H   -12.09952  -14.80495   -6.82515
       O   -11.30263  -15.17231   -7.24249
      H1   -10.70012  -15.22569   -6.45065
       H   -13.11143  -16.91321  -12.46941
       O   -12.75032  -17.44126  -11.74536
      H1   -13.13584  -18.31070  -11.86579
       H   -15.66891  -17.00206  -10.63380
       O   -15.40842  -16.76678   -9.74583
      H1   -15.74161  -17.49487   -9.20108
       H   -12.15100  -12.61244  -12.22991
       O   -11.85698  -12.12078  -12.97992
      H1   -12.16794  -11.20728  -12.79207
       H   -17.01995  -16.57697  -11.99807
       O   -16.18972  -16.22133  -12.34658
      H1   -16.16336  -15.32997  -11.98513
       H   -14.88519  -13.21756  -14.04062
       O   -14.18342  -13.78337  -13.74402
      H1   -13.44148  -13.19218  -13.61527
       H   -13.67001  -15.55058  -14.03608
       O   -13.47598  -16.46432  -14.07442
      H1   -12.54862  -16.49070  -13.84159
       H   -15.95470  -13.03947  -11.35138
       O   -15.44787  -13.84595  -11.28232
      H1   -15.13154  -13.95332  -12.18525

