60
frame 2 | Written by MDAnalysis XYZWriter (release 2.4.3)
       H   -15.16152   15.57773   -9.88494
       O   -15.85550   15.48400  -10.53483
      H1   -15.41995   15.18558  -11.33898
       H   -18.19066   17.69969  -11.49268
       O   -18.49912   17.76424  -12.39094
      H1   -17.69086   17.72031  -12.89567
       H   -14.44041   15.46788  -15.53887
       O   -14.62437   16.40764  -15.36977
      H1   -15.41228   16.38456  -14.82101
       H   -12.87974   16.45773   -6.27190
       O   -13.28363   17.29622   -6.51637
      H1   -13.03292   17.47313   -7.44227
       H   -13.25083   14.30157  -16.56828
       O   -13.66181   13.97216  -15.72669
      H1   -12.92137   14.00490  -15.08683
       H   -11.35122   15.32061  -14.42467
       O   -10.95658   14.46515  -14.56323
      H1   -10.54241   14.56811  -15.43578
       H   -16.83823   13.03009  -14.11705
       O   -16.29977   13.83541  -14.34116
      H1   -15.46636   13.74399  -13.85885
       H   -12.17528   12.87276  -11.41916
       O   -12.76485   13.31926  -10.82500
      H1   -12.50329   12.90575   -9.96761
       H   -15.06203   17.86488  -18.25200
       O   -15.80690   17.54085  -17.74266
      H1   -15.43587   17.07628  -16.97129
       H   -12.21374   15.02549   -9.88185
       O   -11.66544   15.59691   -9.34965
      H1   -10.81806   15.63598   -9.79371
       H   -13.29929   14.77532  -12.57230
       O   -13.99663   15.36938  -12.81844
      H1   -13.76369   15.60798  -13.72479
       H   -16.70643   17.31829   -7.98889
       O   -16.50061   17.36736   -7.00709
      H1   -16.91507   18.16851   -6.72650
       H   -17.60362   16.52315  -10.01111
       O   -17.88481   17.38393   -9.67374
      H1   -18.51900   17.17450   -8.97725
       H   -15.90706   18.20502  -12.74979
       O   -16.03310   17.77747  -13.59877
      H1   -16.04848   18.52638  -14.25245
       H   -14.47159   14.37983   -7.41818
       O   -14.22533   15.00262   -8.10554
      H1   -14.29965   15.85461   -7.61250
       H   -14.24895   18.65660  -12.67628
       O   -13.75782   18.04687  -12.09135
      H1   -14.04725   17.13164  -12.37902
       H   -10.79033   18.63926  -11.23405
       O   -10.64518   18.08881  -12.01279
      H1   -11.50275   17.70295  -12.28048
       H    -9.79951   16.87195  -11.37386
       O    -9.67721   15.96602  -11.02654
      H1    -8.72712   15.80867  -11.05444
       H   -13.86667   17.79471   -9.96038
       O   -13.12047   17.77943   -9.31085
      H1   -12.65749   16.96793   -9.59550
       H   -11.22194   17.35830  -14.66469
       O   -11.98609   17.00574  -14.15969
      H1   -12.74684   17.60929  -14.38242

