60
frame 0 | Written by MDAnalysis XYZWriter (release 2.4.3)
       H    13.85320   14.25440   11.04255
       O    14.60394   13.65548   11.29659
      H1    14.10825   12.91258   11.71100
       H    14.90363   18.93274   10.25970
       O    14.42864   18.61517    9.45538
      H1    15.13670   18.64654    8.82120
       H    16.92200   17.29382   16.15051
       O    16.25180   16.82840   15.63168
      H1    15.95740   16.09071   16.18438
       H    12.73467   15.97258    9.70605
       O    13.48547   16.17205   10.21318
      H1    13.95279   16.82928    9.66714
       H    14.48949   17.60730   12.66606
       O    13.56153   17.84995   12.51671
      H1    13.37708   17.19547   11.80788
       H    16.59315   16.99126   13.67343
       O    16.41398   17.03081   12.71669
      H1    16.40016   16.10021   12.44143
       H    11.32445   17.08904   14.50023
       O    11.97725   16.41683   14.76318
      H1    12.75018   16.67874   14.27980
       H    13.43388   18.10148   17.01253
       O    13.15432   17.17786   17.10458
      H1    12.72734   16.97116   16.26616
       H    11.80546   14.78508   14.33840
       O    11.76944   13.81039   14.30524
      H1    11.83140   13.46426   15.24363
       H    14.54816   14.39809   12.86532
       O    14.08191   14.82482   13.57273
      H1    13.27722   14.25454   13.64949
       H     8.52614   18.40893   10.30739
       O     8.81280   17.49734   10.17844
      H1     9.60216   17.47397   10.72143
       H    13.16689   17.14929    7.32215
       O    12.31252   16.70679    7.31421
      H1    11.74962   17.31025    6.76757
       H    11.47739   13.56667   10.91312
       O    11.90984   13.10569   11.62189
      H1    11.79418   13.66424   12.41745
       H    14.90019   14.01619   15.11806
       O    15.38086   14.12541   15.95960
      H1    14.77446   13.92514   16.69561
       H    15.54742   19.25775   17.29504
       O    15.01844   19.21243   16.48064
      H1    15.39145   18.42857   16.06296
       H    18.32206   16.92966   10.13807
       O    17.94934   17.72534   10.53733
      H1    17.40268   17.38125   11.25527
       H    17.95410   14.64096   13.79545
       O    17.94098   14.88145   14.75129
      H1    17.04962   15.26860   14.86285
       H    11.83539   17.56930   12.24511
       O    10.91587   17.34134   12.19981
      H1    10.94123   16.39453   12.32479
       H    15.78042   15.99399    8.40520
       O    15.87780   15.19288    8.94004
      H1    14.98912   15.04729    9.26941
       H    17.75287   14.43054   11.32350
       O    17.17681   14.40976   12.10382
      H1    16.31246   14.19977   11.72819

