60
frame 1 | Written by MDAnalysis XYZWriter (release 2.4.3)
       H     0.39540   -4.77312   -8.63124
       O    -0.53913   -4.75711   -8.88397
      H1    -0.94929   -4.69769   -8.00233
       H    -1.22828   -6.15084   -9.29067
       O    -1.70876   -6.99278   -9.42965
      H1    -1.59801   -7.11636  -10.39248
       H    -7.01240   -3.83288   -9.51956
       O    -6.76888   -2.96336   -9.16052
      H1    -5.89483   -3.14945   -8.81771
       H    -4.04539   -5.22437  -10.77437
       O    -3.82411   -5.52965   -9.90199
      H1    -2.93606   -5.90267  -10.10053
       H    -3.14857   -6.89067   -6.27520
       O    -2.35176   -6.78571   -5.73666
      H1    -2.40704   -7.45616   -5.02377
       H    -6.55042   -7.62698  -10.66584
       O    -6.68430   -7.67617   -9.69149
      H1    -7.48554   -8.22099   -9.61273
       H    -5.55614   -3.29462   -5.36854
       O    -5.46244   -3.86336   -6.14155
      H1    -4.68659   -3.48775   -6.53707
       H    -8.29599   -5.45384   -8.59555
       O    -8.33694   -5.51945   -9.55805
      H1    -7.80712   -6.29091   -9.73465
       H    -4.10304   -6.16264   -8.14897
       O    -4.41548   -6.21058   -7.24498
      H1    -4.69110   -5.30385   -7.04980
       H    -2.82066   -6.43316  -13.63300
       O    -3.08175   -5.64632  -14.07414
      H1    -3.56235   -5.96946  -14.84415
       H    -1.71270   -7.84802  -12.46352
       O    -1.75617   -6.95796  -12.08173
      H1    -0.86007   -6.64356  -12.14410
       H    -3.89467   -4.69642  -12.93065
       O    -4.23202   -4.28366  -12.09891
      H1    -5.18789   -4.29138  -12.27764
       H    -4.60228   -0.77567  -10.77091
       O    -4.86866   -1.04656  -11.67109
      H1    -4.34188   -1.85337  -11.81406
       H    -5.95962   -7.06919   -6.93161
       O    -6.66179   -7.70568   -6.69856
      H1    -6.63720   -8.29753   -7.44827
       H    -6.53788   -7.21165  -13.03351
       O    -7.10557   -6.89212  -12.33141
      H1    -7.86559   -7.50716  -12.33268
       H    -3.44444   -2.67671   -8.86153
       O    -4.10184   -3.21036   -8.38317
      H1    -3.89610   -4.08038   -8.78491
       H    -1.12943   -3.67685  -10.65340
       O    -1.35764   -3.10333  -11.42051
      H1    -2.16828   -3.46111  -11.81738
       H    -7.28234   -5.12369  -12.33285
       O    -6.88408   -4.26791  -12.46441
      H1    -7.52211   -3.61994  -12.09828
       H    -4.50794  -10.86730  -11.40822
       O    -4.34938  -10.15789  -12.08203
      H1    -4.14306   -9.42636  -11.45143
       H    -4.75430   -8.57426   -9.84178
       O    -3.89563   -8.94167   -9.62058
      H1    -3.36113   -8.23899   -9.28630

