60
frame 2 | Written by MDAnalysis XYZWriter (release 2.4.3)
       H     7.26647   -7.95576   14.07218
       O     7.92623   -7.23810   14.03425
      H1     7.93413   -7.07380   13.07762
       H     4.52662   -6.77468   14.74752
       O     4.04317   -7.58855   14.57119
      H1     4.00033   -7.54289   13.58847
       H     9.81838   -8.08274   14.12488
       O    10.77401   -8.25380   14.08489
      H1    11.05378   -7.78432   14.87930
       H     5.72867  -12.12470   18.57180
       O     5.78549  -12.99157   18.09970
      H1     6.33876  -12.73878   17.34302
       H     2.44064   -7.04954   17.56528
       O     3.01077   -6.32703   17.87306
      H1     2.49716   -5.86126   18.51747
       H    11.84307   -6.93670   17.94495
       O    11.94350   -6.94686   18.91721
      H1    12.17719   -6.03833   19.12478
       H     4.17205   -5.18263   16.72321
       O     4.73263   -4.59962   16.21618
      H1     5.55358   -5.06638   16.19889
       H     4.00603   -8.61515   16.26286
       O     4.62878   -9.08663   16.83289
      H1     4.46587   -8.66201   17.66788
       H    10.30152   -2.95176   19.22307
       O    10.76161   -3.60266   18.66953
      H1    10.03059   -4.11020   18.33204
       H     9.03222   -9.79981   17.95868
       O     9.12890   -9.33702   17.13191
      H1     9.57819   -9.99635   16.57246
       H     7.42487   -8.72095   18.09481
       O     7.44843   -8.56205   19.06449
      H1     6.76092   -7.87457   19.15366
       H    10.77960   -6.34688   16.70771
       O    11.60172   -6.69562   16.32823
      H1    12.08905   -5.87934   16.11963
       H     3.08010  -11.88055   16.63573
       O     2.89637  -10.93019   16.63686
      H1     3.76769  -10.55575   16.77789
       H     7.52023  -13.45821   15.45495
       O     6.69828  -12.93257   15.50227
      H1     6.75159  -12.20913   14.87574
       H     5.59006   -9.58577   13.81718
       O     6.25805   -9.35963   14.47162
      H1     5.76054   -9.12917   15.27726
       H     7.32703   -3.12341   17.85123
       O     7.56168   -3.89061   18.41333
      H1     7.60822   -4.68826   17.85666
       H     7.55399   -5.65423   14.94599
       O     7.37553   -5.07770   15.68818
      H1     7.60868   -4.23192   15.32177
       H    10.47485  -11.14842   14.73332
       O    10.44647  -11.26574   15.70168
      H1    10.05672  -12.14480   15.76888
       H     1.87825   -9.35856   18.05111
       O     2.35429   -9.21091   18.86521
      H1     1.85090   -8.53909   19.32640
       H     9.18171   -7.14596   17.15992
       O     9.15174   -6.19741   17.30441
      H1     8.55848   -5.91997   16.60897

