60
frame 0 | Written by MDAnalysis XYZWriter (release 2.4.3)
       H    -3.97333  -13.16499    5.55298
       O    -3.06642  -13.08038    5.20722
      H1    -2.78416  -12.17955    5.49854
       H    -4.47422  -16.40770    7.97046
       O    -4.92120  -15.60201    8.22379
      H1    -4.42228  -15.35626    9.02363
       H    -1.89144  -10.11116    6.35576
       O    -2.85636  -10.17489    6.54354
      H1    -2.89363  -10.03096    7.45463
       H    -3.14316   -9.61052    3.35767
       O    -2.28964   -9.27347    3.07217
      H1    -1.91336   -9.91902    2.48290
       H    -2.90697  -16.23437    3.70035
       O    -2.32398  -15.78973    4.35554
      H1    -2.71677  -14.89959    4.37444
       H    -5.75754  -13.02559    6.54350
       O    -5.54480  -13.88579    6.15116
      H1    -5.43840  -14.45008    6.92466
       H    -0.28624  -16.69120    2.40968
       O    -0.13231  -16.95510    3.31250
      H1    -0.91023  -16.58791    3.76243
       H    -3.19935  -13.83461    1.36692
       O    -3.40061  -14.77004    1.20331
      H1    -3.85119  -14.73795    0.34625
       H    -0.12005  -10.94403    4.66045
       O    -0.62250  -11.57428    5.20260
      H1    -0.03075  -11.89659    5.91980
       H    -2.10578  -13.84762    7.04794
       O    -2.61531  -13.75552    7.88726
      H1    -3.44066  -14.21456    7.60978
       H     0.01984  -15.75183    7.66902
       O    -0.68209  -15.80280    8.34061
      H1    -1.31276  -15.10649    8.08371
       H    -2.68444  -12.20111    3.31918
       O    -2.54681  -12.44384    2.39817
      H1    -1.66416  -12.84992    2.34682
       H    -6.97483  -12.64150    4.21957
       O    -7.83460  -12.53850    4.65421
      H1    -7.87681  -13.30274    5.26176
       H    -3.70475  -12.37356    9.50881
       O    -3.44360  -11.44534    9.48878
      H1    -2.55139  -11.50949    9.13446
       H    -5.23674  -11.51194    2.11603
       O    -5.79893  -12.27465    1.96936
      H1    -6.35990  -12.02139    1.23011
       H    -5.56870  -11.40068    8.20848
       O    -5.45207  -11.31544    7.22312
      H1    -4.63384  -10.81648    7.16738
       H    -5.47586  -15.30525    4.87685
       O    -5.53404  -16.14914    4.41673
      H1    -5.93086  -15.89722    3.58221
       H    -2.27057  -17.02660    7.50753
       O    -3.05905  -17.12655    6.94127
      H1    -2.84412  -16.50859    6.23151
       H     0.42041  -13.42730    2.77511
       O     0.51042  -13.74442    3.67279
      H1     0.18168  -13.06997    4.27012
       H    -5.50280   -9.26201    3.81437
       O    -5.00642   -9.81951    3.16704
      H1    -4.93869   -9.28136    2.36521

