60
frame 1 | Written by MDAnalysis XYZWriter (release 2.4.3)
       H    -7.37798   -6.64463   13.47275
       O    -7.99342   -6.74067   14.21284
      H1    -8.86348   -6.87694   13.79373
       H    -5.51843   -7.27171   12.73113
       O    -6.07245   -6.51916   12.46996
      H1    -6.24026   -6.73228   11.55036
       H    -4.79493  -11.84670   15.89043
       O    -4.32452  -12.53073   15.42827
      H1    -4.04346  -12.05449   14.64846
       H    -8.97840   -5.77240   18.70602
       O    -8.79228   -5.82043   17.75497
      H1    -8.71008   -6.75732   17.63582
       H    -5.33022   -7.44999   15.91749
       O    -5.90328   -7.38205   16.69554
      H1    -6.81179   -7.37432   16.32359
       H    -8.77852  -12.19044   17.07102
       O    -8.73534  -11.77031   16.21737
      H1    -8.59138  -10.82754   16.39165
       H    -4.90469   -8.12837   18.18427
       O    -4.83697   -8.78038   18.89005
      H1    -3.91356   -9.11979   18.79476
       H    -9.27073   -4.73529   13.99222
       O    -9.66688   -4.52169   14.82539
      H1    -9.31341   -5.20123   15.42306
       H   -11.69998   -6.51672   18.02884
       O   -11.32010   -6.09294   17.27583
      H1   -10.37310   -6.00933   17.52343
       H    -5.53681   -4.90995   17.81029
       O    -6.40040   -4.53386   18.04144
      H1    -7.01323   -5.21401   17.68933
       H    -2.61261   -4.71564   18.14025
       O    -3.40476   -5.23748   18.46004
      H1    -3.01857   -5.77030   19.17228
       H    -2.31091  -10.81179   18.38379
       O    -2.46072   -9.88410   18.29533
      H1    -2.43523   -9.72928   17.33795
       H    -4.22277   -4.64100   14.88743
       O    -3.86741   -3.79767   14.59294
      H1    -3.18736   -3.57545   15.23906
       H    -2.58160   -8.85716   15.29842
       O    -2.15901   -9.66154   15.59604
      H1    -1.68899   -9.99640   14.83864
       H    -5.92482  -11.24026   17.23976
       O    -5.48729  -10.51124   16.81892
      H1    -5.16473  -10.00044   17.57981
       H    -6.68016   -9.49023   15.26953
       O    -7.18781   -9.23104   14.50055
      H1    -7.48574   -8.35474   14.72678
       H    -8.37457   -8.97190   18.55897
       O    -8.89017   -9.12210   17.74072
      H1    -9.70149   -9.48477   18.06645
       H    -2.85831   -6.68733   14.66711
       O    -3.52529   -6.80239   15.32381
      H1    -3.17627   -6.34784   16.14636
       H    -8.41666   -9.34279   13.03845
       O    -8.80518   -9.69679   12.22970
      H1    -8.59501   -9.00866   11.60778
       H    -5.33701   -9.09366   11.75854
       O    -5.01556   -9.01198   12.68794
      H1    -5.79633   -9.16693   13.20586

