60
frame 1 | Written by MDAnalysis XYZWriter (release 2.4.3)
       H     3.93098  -14.28771   13.28635
       O     3.69485  -13.35795   13.31260
      H1     3.54830  -13.18207   14.24230
       H     0.46174  -14.76791   14.08844
       O     1.07910  -14.53456   13.37580
      H1     1.68792  -13.89568   13.79942
       H     3.56874  -11.14091   12.37971
       O     3.59100  -10.17596   12.43582
      H1     3.69816   -9.89127   11.51889
       H     3.81956  -14.50808   18.59557
       O     4.66936  -14.96523   18.54387
      H1     5.28899  -14.29296   18.81090
       H     0.61507  -10.78881   16.06401
       O     1.15173  -10.46889   16.84606
      H1     1.54588   -9.64834   16.53219
       H     7.41894  -14.80228   14.65540
       O     7.07282  -13.97301   14.90612
      H1     6.81149  -13.57354   14.04773
       H     5.95571  -10.79842   11.32377
       O     6.76070  -10.37184   11.67024
      H1     6.46847  -10.13651   12.52372
       H     4.07860   -7.93597   16.82249
       O     3.89643   -8.86109   17.04521
      H1     4.45971   -8.98724   17.80905
       H     1.30916  -13.95120   16.20420
       O     2.14856  -13.56410   15.96354
      H1     2.39128  -12.96599   16.67360
       H     6.85909  -11.99972   16.55271
       O     6.79647  -11.11742   16.94732
      H1     6.73829  -10.51378   16.21132
       H     8.98778  -14.45238   17.59169
       O     9.59177  -13.69708   17.65430
      H1    10.29971  -13.97164   18.23369
       H     4.65622   -9.88991   13.98274
       O     5.23341   -9.41490   14.57194
      H1     4.87288   -9.55326   15.45987
       H     0.69754  -12.53264   15.09862
       O    -0.02480  -11.93148   14.95288
      H1    -0.15309  -11.90096   13.98389
       H     2.76019  -16.49845   15.68086
       O     2.35823  -16.68389   16.52712
      H1     2.79202  -17.47818   16.84390
       H     8.59369  -12.65688   14.58632
       O     9.39752  -12.22045   14.85421
      H1     9.65928  -12.69803   15.67037
       H     0.19592  -11.80195   18.04699
       O    -0.13646  -12.69713   18.09619
      H1    -0.89540  -12.63200   18.63639
       H     0.58676  -10.01888   18.49784
       O     0.23863  -10.26614   19.37318
      H1    -0.65010   -9.91670   19.28856
       H     1.94281   -9.70282   12.70505
       O     1.07516   -9.48487   13.08472
      H1     0.51670   -9.34424   12.33377
       H     4.41787  -11.68841   17.17469
       O     3.97774  -12.25509   17.82208
      H1     4.49398  -13.06393   17.75388
       H     5.28738  -16.27824   17.49409
       O     5.81091  -16.99404   17.13116
      H1     5.48851  -17.10447   16.25444

