60
frame 1 | Written by MDAnalysis XYZWriter (release 2.4.3)
       H    13.04880    9.22708   -3.87306
       O    13.37630    9.51150   -2.98127
      H1    13.98543   10.24544   -3.13730
       H     7.92578   12.98880    2.38909
       O     8.73629   12.76865    2.88905
      H1     8.71561   11.80162    2.97759
       H    13.04278    7.89228    2.52997
       O    12.54350    7.12041    2.67968
      H1    12.25457    7.18136    3.62100
       H    12.38890    8.78827   -1.56691
       O    11.86813    8.09040   -1.16022
      H1    11.00003    8.23881   -1.54122
       H    10.30645   13.61484   -2.76997
       O     9.69722   12.96096   -2.47572
      H1     9.03884   13.48163   -1.99936
       H     9.29377    7.10525    2.44914
       O     9.60109    7.98106    2.14594
      H1    10.55663    7.86560    2.18754
       H    11.71569   11.89128    5.19189
       O    11.85247   11.63481    4.28427
      H1    10.97706   11.37312    4.03966
       H    16.05317   11.15183   -1.87021
       O    15.18526   11.35123   -2.28486
      H1    14.63952   11.76357   -1.62233
       H    12.56769   12.95606   -2.39428
       O    12.95816   12.74589   -1.55318
      H1    12.46050   11.99802   -1.22167
       H     9.87861   16.40313    1.08442
       O     9.83942   15.57004    0.62201
      H1    10.53028   15.68863   -0.04733
       H    11.86826   15.08984    3.52825
       O    12.49702   14.36296    3.56396
      H1    12.06679   13.65133    3.97628
       H    11.73428   11.50887    0.31520
       O    12.34838   10.77557    0.15900
      H1    11.82508    9.97907    0.04583
       H    14.05765    9.37507    3.76999
       O    13.39307    9.36199    4.48438
      H1    12.92899   10.16896    4.39890
       H     9.34479    6.79671   -0.90998
       O     9.06748    7.70882   -0.75727
      H1     9.32302    7.88083    0.15074
       H    14.16334   12.45116    1.98383
       O    14.53948   11.86379    1.33415
      H1    13.74900   11.55038    0.83104
       H     9.86358   12.41541    1.32285
       O    10.36503   12.41965    0.48688
      H1    10.44295   13.35069    0.29202
       H    13.62504   15.26316    1.49932
       O    13.60178   16.00741    0.87896
      H1    14.35090   15.86225    0.26709
       H    14.24195    8.44042    0.91212
       O    14.14107    9.04799    1.65039
      H1    13.73447    9.81604    1.23215
       H     8.79199    9.42014   -3.99997
       O     8.98276    9.55465   -3.06039
      H1     9.22152   10.48688   -2.96156
       H    12.32447   15.74576   -0.45349
       O    11.83521   15.28645   -1.14288
      H1    12.32457   14.44958   -1.17698

