60
frame 2 | Written by MDAnalysis XYZWriter (release 2.4.3)
       H    13.25139  -14.51011   -1.14367
       O    12.72536  -14.78602   -1.91796
      H1    12.48752  -13.94004   -2.30775
       H    13.52741  -17.44749   -0.04910
       O    14.26901  -17.40920    0.60553
      H1    14.39112  -16.46985    0.69051
       H    15.13443  -14.36790    1.83767
       O    15.86129  -14.48662    2.46624
      H1    16.62949  -14.05907    2.02977
       H    14.63173  -12.36819   -0.11663
       O    15.51203  -12.52394   -0.50138
      H1    15.65349  -13.47906   -0.31459
       H    11.55649  -16.50661    1.46034
       O    11.30385  -16.19166    0.58334
      H1    10.33681  -16.11115    0.64982
       H    14.27613  -15.57501   -2.39826
       O    15.10643  -16.01417   -2.73982
      H1    14.99920  -16.93179   -2.47934
       H    11.50120  -18.26989   -0.63090
       O    12.32416  -18.34961   -1.09973
      H1    12.54553  -19.32763   -0.99904
       H    16.03319  -15.47040   -1.36212
       O    16.34101  -15.08898   -0.52740
      H1    16.89417  -15.78706   -0.14917
       H    12.55483  -15.17075    0.71362
       O    13.37883  -14.66768    0.79844
      H1    13.18754  -14.16518    1.62750
       H    16.92554  -18.96906   -0.56068
       O    16.84309  -18.05140   -0.26490
      H1    15.96742  -18.13227    0.18712
       H    12.71365  -11.09766    1.42918
       O    13.18070  -11.60336    0.76589
      H1    12.51819  -12.16660    0.39691
       H    10.14675  -12.90614   -1.73838
       O     9.89638  -13.04806   -2.67145
      H1     9.89552  -14.02956   -2.72091
       H    10.28056  -15.90558   -1.94494
       O     9.49841  -15.66003   -2.41474
      H1     9.69944  -15.94677   -3.30473
       H    10.49290  -12.97089    0.60335
       O    10.97875  -13.06276   -0.23738
      H1    11.34326  -13.91189   -0.19440
       H    16.09100  -12.88221   -2.32137
       O    16.61815  -12.65336   -3.10878
      H1    17.23724  -11.99358   -2.80558
       H    11.36998  -14.45908    3.97779
       O    10.49030  -14.59049    4.33740
      H1     9.88413  -14.35185    3.65764
       H    11.72572  -16.85215    4.00286
       O    12.16715  -16.92301    3.14910
      H1    12.37199  -17.86386    3.12479
       H    15.80996  -12.71911    3.13540
       O    15.78736  -11.95155    3.71864
      H1    16.58004  -12.12247    4.28177
       H    15.71624  -17.23063    3.35070
       O    15.74754  -16.63471    4.08569
      H1    15.47011  -15.77304    3.72256
       H    13.47044  -13.83361    4.09214
       O    13.13359  -13.55964    3.24259
      H1    13.50383  -12.67467    3.15422

