60
frame 2 | Written by MDAnalysis XYZWriter (release 2.4.3)
       H    -9.95673   -3.69816  -14.79530
       O    -9.16485   -4.25055  -15.03665
      H1    -8.62476   -4.23397  -14.21952
       H    -9.79986   -0.95817  -12.33415
       O    -9.16942   -1.61913  -12.63601
      H1    -8.75931   -1.92432  -11.81477
       H   -10.80644    0.93701  -10.89455
       O   -11.12312    0.15330  -11.39387
      H1   -12.01493    0.40092  -11.64629
       H   -11.91354   -0.51672  -14.78897
       O   -12.71406   -0.04008  -15.04119
      H1   -12.35250    0.80881  -15.23753
       H   -11.42241   -1.57460  -10.58449
       O   -11.85502   -2.25757  -10.02507
      H1   -11.19404   -2.48542   -9.37397
       H   -14.20782   -1.97597  -16.73628
       O   -14.08771   -1.15092  -17.20790
      H1   -13.54805   -0.60840  -16.58143
       H   -15.66831   -3.88654  -17.53508
       O   -15.18422   -3.87440  -16.70777
      H1   -14.54458   -4.60653  -16.79748
       H    -9.76983   -0.60410  -17.35079
       O    -9.33037    0.20392  -17.61707
      H1    -8.67216   -0.08820  -18.23825
       H   -11.09318   -1.84849  -18.13178
       O   -10.61521   -2.31597  -17.45041
      H1    -9.98781   -2.83270  -17.95441
       H   -13.24675   -2.32584  -13.87130
       O   -13.76976   -2.49626  -13.06851
      H1   -14.37310   -3.22823  -13.27453
       H   -11.08185   -3.41600  -11.09480
       O   -10.80234   -4.09851  -11.70982
      H1    -9.92113   -4.30262  -11.40452
       H   -10.04727   -6.06142  -14.48103
       O   -10.23227   -6.92410  -14.11079
      H1   -10.98149   -7.24080  -14.65968
       H   -13.94013   -1.01216  -12.50216
       O   -13.67423   -0.12297  -12.23552
      H1   -13.61901    0.28114  -13.11694
       H    -9.16269   -0.60875  -14.25226
       O    -9.68613   -0.13023  -14.89329
      H1    -9.17783   -0.22002  -15.71174
       H   -16.27843   -4.98869  -13.82570
       O   -15.90442   -4.08180  -13.94550
      H1   -15.67983   -3.96286  -14.87559
       H   -13.37610   -6.44754  -16.18208
       O   -14.17766   -6.69253  -16.65196
      H1   -14.70596   -7.03678  -15.92475
       H   -11.38634    2.38442  -15.06495
       O   -11.55311    2.53001  -16.00251
      H1   -10.74643    2.19551  -16.41932
       H   -12.11782   -5.41513  -11.94436
       O   -12.48316   -6.21546  -11.54813
      H1   -13.19502   -6.39118  -12.16489
       H   -10.75472   -2.03267  -15.10222
       O   -11.47109   -2.45904  -14.61207
      H1   -11.04693   -2.57568  -13.74721
       H    -9.60240    3.23445  -14.04396
       O   -10.12126    2.50017  -13.68956
      H1    -9.73414    1.76158  -14.13778

