60
frame 1 | Written by MDAnalysis XYZWriter (release 2.4.3)
       H     0.63258  -13.36400    8.73815
       O     1.00725  -13.19199    9.60757
      H1     1.37539  -14.03248    9.86611
       H     2.86355  -16.61069    9.15879
       O     2.52049  -15.71378    9.10423
      H1     2.27107  -15.63876    8.17412
       H    -0.26676  -13.44760   12.13879
       O    -0.85933  -12.71256   11.96109
      H1    -0.45510  -12.30497   11.15427
       H     3.48984  -11.17881    9.38632
       O     2.63898  -11.03426    8.94868
      H1     2.09310  -11.77203    9.27846
       H     0.65545  -15.27396    5.94790
       O     1.05627  -15.93917    6.50529
      H1     1.42770  -16.57532    5.88729
       H     3.78822  -14.43053    7.04388
       O     3.29856  -14.16513    6.27226
      H1     2.54417  -14.70571    6.36462
       H     1.05253   -9.02537    6.81868
       O     1.90631   -8.63182    6.59510
      H1     1.81988   -8.32812    5.66691
       H     0.96766  -10.56334    3.57349
       O     0.32435  -10.87604    4.19650
      H1     0.69876  -10.64361    5.05335
       H    -2.58617  -13.41670   10.62463
       O    -2.42918  -13.78598    9.74218
      H1    -2.87420  -13.08629    9.17127
       H     3.11953   -8.09709    9.21372
       O     2.41616   -8.42405    9.79048
      H1     2.41355   -9.32690    9.50172
       H    -1.15361  -13.18457    6.91373
       O    -0.29677  -12.91243    7.26122
      H1     0.32532  -12.82330    6.52561
       H     2.71478  -12.41825    6.44721
       O     2.36905  -11.51336    6.36782
      H1     2.44450  -11.24387    7.28578
       H     0.08899  -15.90024    7.85904
       O    -0.57687  -15.72237    8.53340
      H1    -0.57757  -14.76219    8.63908
       H    -2.18638  -16.92439    9.93517
       O    -2.86619  -16.35573   10.32518
      H1    -2.64861  -15.43574   10.01559
       H     5.29577  -12.01520    9.53997
       O     4.84140  -11.96686   10.37275
      H1     4.88679  -12.88085   10.65885
       H    -0.89500  -16.85274    6.67271
       O    -1.70306  -17.29166    6.35659
      H1    -1.70537  -17.13450    5.40664
       H    -1.11268  -10.19830    6.92429
       O    -0.22189  -10.11721    7.31769
      H1     0.07853  -11.02993    7.30943
       H     0.43924  -16.17475   12.26729
       O     0.66870  -16.87694   11.62298
      H1     0.38584  -16.53173   10.76428
       H    -0.31322   -9.63739    8.99985
       O    -0.16237   -9.27938    9.88139
      H1     0.66389   -8.78505    9.79099
       H     1.14409  -13.96060    4.05380
       O     0.45607  -14.05193    4.75779
      H1    -0.22156  -13.43097    4.46081

