60
frame 1 | Written by MDAnalysis XYZWriter (release 2.4.3)
       H     4.99608   13.32874    0.52599
       O     4.06683   13.56679    0.65263
      H1     3.65887   13.11134   -0.07330
       H     7.92578   12.98880    2.38909
       O     8.73629   12.76865    2.88905
      H1     8.71561   11.80162    2.97759
       H     5.87635   16.36546    1.82520
       O     6.74335   16.33308    2.27408
      H1     6.53181   16.73173    3.12672
       H    10.30645   13.61484   -2.76997
       O     9.69722   12.96096   -2.47572
      H1     9.03884   13.48163   -1.99936
       H     7.42911   17.42626    0.81232
       O     8.01157   17.93964    0.28629
      H1     8.84756   18.05710    0.77570
       H    10.98383   19.36608   -0.59942
       O    11.30841   18.83884   -1.31292
      H1    10.50742   18.38680   -1.62518
       H    10.29814   16.75330   -3.60389
       O    10.22862   16.76694   -2.65188
      H1    11.10832   16.45723   -2.35968
       H     5.61928   16.32933   -1.37879
       O     5.83807   15.82485   -2.14215
      H1     6.27613   16.46729   -2.70490
       H     7.35971   14.28159    0.32555
       O     6.90247   13.96010    1.12534
      H1     6.80696   14.77074    1.62490
       H     5.09192   13.92882   -3.92706
       O     4.80020   13.17680   -3.39825
      H1     4.53193   12.53218   -4.07499
       H     7.90463   17.75692   -1.76636
       O     7.34448   17.93348   -2.52966
      H1     7.91763   17.90281   -3.27482
       H     8.22308   15.27112   -1.07806
       O     7.85256   14.43040   -1.39589
      H1     6.92749   14.61891   -1.68617
       H     4.37553   15.43147    0.78792
       O     4.85369   16.20520    0.48481
      H1     4.16585   16.87453    0.36532
       H     9.87861   16.40313    1.08442
       O     9.83942   15.57004    0.62201
      H1    10.53028   15.68863   -0.04733
       H    10.81000   16.35694   -5.72508
       O     9.94146   16.81401   -5.63235
      H1     9.38602   16.08286   -5.32026
       H     8.25587   12.36186   -4.30757
       O     7.42723   12.02851   -4.66833
      H1     6.98858   11.59567   -3.91394
       H     9.86358   12.41541    1.32285
       O    10.36503   12.41965    0.48688
      H1    10.44295   13.35069    0.29202
       H     8.00471   14.84038   -3.83329
       O     8.22718   14.89972   -4.76198
      H1     8.78121   14.11933   -4.93462
       H     6.54060   10.48783    0.69914
       O     6.25393   11.24969    0.17939
      H1     6.76664   12.01627    0.47997
       H    12.32447   15.74576   -0.45349
       O    11.83521   15.28645   -1.14288
      H1    12.32457   14.44958   -1.17698

