60
frame 1 | Written by MDAnalysis XYZWriter (release 2.4.3)
       H   -11.32074  -16.06053   -8.04535
       O   -11.47024  -16.82916   -8.58459
      H1   -12.43296  -16.82648   -8.63529
       H    -4.85996  -12.62036  -10.61885
       O    -5.43295  -11.84471  -10.42642
      H1    -5.09999  -11.54881   -9.60755
       H    -3.96383  -15.24313   -9.31208
       O    -4.13176  -16.00436   -9.87391
      H1    -3.24902  -16.24720  -10.12678
       H    -7.42981  -15.24325  -10.00684
       O    -7.55372  -16.17781  -10.23704
      H1    -6.95671  -16.27765  -10.97783
       H    -8.34055  -17.77671  -11.08784
       O    -8.31584  -18.67761  -11.49569
      H1    -7.42401  -19.02244  -11.25152
       H   -10.48464  -16.43114  -10.06139
       O   -10.20577  -16.09513  -10.92084
      H1    -9.26488  -16.02648  -10.71910
       H    -6.04689  -17.21846  -13.17307
       O    -5.91619  -16.64925  -12.40289
      H1    -5.17378  -17.04300  -11.95211
       H    -7.13522  -12.88956   -9.48105
       O    -7.70979  -13.58855   -9.10360
      H1    -8.59096  -13.46466   -9.45304
       H    -9.97260  -19.40487   -7.35208
       O    -9.62149  -18.92167   -8.09108
      H1   -10.33160  -18.24998   -8.26969
       H    -6.54667  -11.29160  -12.68868
       O    -7.24320  -11.68709  -13.23941
      H1    -7.21324  -12.63174  -13.06503
       H   -10.74777  -16.42639  -12.51754
       O   -11.18731  -16.50087  -13.36200
      H1   -10.98791  -17.41632  -13.63061
       H    -8.01184  -15.85849   -6.95591
       O    -8.04670  -14.98343   -6.58245
      H1    -8.19229  -14.43553   -7.34146
       H    -5.31894  -15.28389   -5.60303
       O    -5.45161  -14.38438   -5.92928
      H1    -6.28680  -14.40319   -6.40143
       H    -8.00277  -18.03457  -14.57590
       O    -7.13106  -17.62539  -14.62903
      H1    -6.85463  -17.79517  -15.51233
       H   -10.46031  -14.20856  -10.54587
       O   -10.49917  -13.24297  -10.30155
      H1   -11.18470  -13.18382   -9.61201
       H    -3.41671  -19.12934   -7.91918
       O    -2.96440  -18.58119   -8.56680
      H1    -3.59531  -17.82025   -8.68458
       H    -8.18583  -14.72001  -13.83047
       O    -7.82024  -14.70278  -12.95708
      H1    -7.27226  -15.50117  -12.93074
       H    -7.89362  -18.02071   -7.78058
       O    -7.26568  -17.28369   -7.87552
      H1    -7.52989  -16.81635   -8.70646
       H    -3.73403  -14.50495  -11.20142
       O    -3.55413  -13.56440  -11.21738
      H1    -3.81483  -13.38013  -12.13041
       H    -4.96515  -18.98707   -6.55003
       O    -5.06320  -18.08191   -6.27187
      H1    -5.77158  -17.68885   -6.82210

