60
frame 1 | Written by MDAnalysis XYZWriter (release 2.4.3)
       H   -13.07295   -6.70278   -4.43678
       O   -13.78805   -6.43839   -3.82200
      H1   -13.50794   -5.57478   -3.51148
       H   -14.60359  -13.67254    2.42303
       O   -15.36606  -13.12954    2.26981
      H1   -15.34036  -12.75904    1.39429
       H   -16.61254   -8.77674    0.03571
       O   -16.25260   -9.05917    0.87858
      H1   -15.95808   -9.94723    0.67725
       H   -16.29499  -13.81710   -5.11394
       O   -16.32553  -12.83899   -5.03659
      H1   -17.17734  -12.60228   -5.42811
       H   -12.47730  -10.78471   -3.64803
       O   -11.71917  -11.36143   -3.76300
      H1   -11.81739  -11.64476   -4.69280
       H   -18.66856  -12.54399   -6.75780
       O   -18.68748  -12.03569   -5.94324
      H1   -18.64830  -11.12819   -6.25297
       H   -14.50937   -7.30632    0.27934
       O   -13.80074   -6.80481    0.65583
      H1   -13.82110   -7.10512    1.56333
       H   -13.77449  -12.14633   -3.13938
       O   -13.99758  -12.87770   -3.74816
      H1   -14.51886  -12.46307   -4.42780
       H   -14.00752  -10.52144   -6.68394
       O   -13.73603  -10.28419   -5.78515
      H1   -14.56564  -10.01091   -5.35407
       H   -17.01361  -10.19148   -2.73366
       O   -17.06940   -9.23814   -2.76436
      H1   -16.86664   -9.05472   -3.66597
       H   -16.63990  -10.08286   -8.43142
       O   -16.63953  -10.57587   -7.60155
      H1   -17.18596  -11.38729   -7.77689
       H   -18.90411   -6.51489   -1.30310
       O   -18.87494   -7.08617   -0.51988
      H1   -18.31402   -6.64756    0.13401
       H   -12.66322  -10.28419   -1.37605
       O   -13.43869  -10.38396   -1.93488
      H1   -13.93765   -9.56918   -1.79378
       H   -16.97053  -12.45615   -3.26251
       O   -17.01543  -12.04327   -2.40442
      H1   -17.87897  -12.28988   -2.10309
       H   -15.65959   -6.35969   -1.33480
       O   -16.00474   -5.59390   -0.86937
      H1   -15.25512   -5.22524   -0.39712
       H   -15.65681   -8.35525   -2.26901
       O   -14.85943   -7.92553   -1.93005
      H1   -14.51297   -7.52585   -2.72263
       H   -15.98333   -6.10630   -6.37418
       O   -15.99195   -6.56390   -5.50284
      H1   -15.13339   -6.24597   -5.15796
       H   -15.76455  -11.36790   -0.85341
       O   -15.36625  -11.51937    0.01909
      H1   -14.42320  -11.42552   -0.13555
       H   -16.39732   -9.72656   -6.19188
       O   -16.09203   -9.23603   -5.40045
      H1   -16.27902   -8.30568   -5.61548
       H   -15.96539  -13.25871   -1.54411
       O   -15.72989  -14.13658   -1.18955
      H1   -16.40592  -14.29871   -0.51209

