60
frame 1 | Written by MDAnalysis XYZWriter (release 2.4.3)
       H    -1.17102    0.63974    9.32875
       O    -1.27377    1.22151    8.53348
      H1    -2.14282    1.62765    8.66261
       H    -8.54105    0.04084    9.66084
       O    -9.29989   -0.45041    9.35884
      H1   -10.08213    0.03329    9.76712
       H    -3.38917   -1.02142   11.69911
       O    -3.21132   -0.55759   10.87416
      H1    -3.87434    0.13588   10.76837
       H    -4.38213    0.92199    8.80877
       O    -5.19144    0.42335    8.83016
      H1    -4.95771   -0.42065    8.43421
       H    -3.85100   -1.32493    3.37465
       O    -3.91500   -0.55525    3.96339
      H1    -3.86839   -0.97557    4.85321
       H    -2.83736   -2.36162    9.94672
       O    -2.15880   -3.05439    9.88447
      H1    -1.39438   -2.58095    9.47697
       H    -3.57623    2.23354   12.45503
       O    -3.63347    2.51096   11.51305
      H1    -4.41615    3.08505   11.51718
       H    -3.97513    3.07899    7.82766
       O    -3.69391    2.28126    7.37612
      H1    -4.34315    2.21748    6.64446
       H    -0.12786   -0.97313   11.44862
       O    -0.45902   -0.84804   10.54883
      H1    -1.41768   -0.76426   10.61857
       H    -3.42531   -5.09884    6.83028
       O    -3.79821   -4.23038    7.02742
      H1    -4.34576   -4.43183    7.80208
       H    -6.85567   -2.29145    6.08692
       O    -6.74482   -2.18927    7.04172
      H1    -7.59452   -2.35353    7.43418
       H    -5.22422   -4.00485   11.89069
       O    -5.90193   -3.35582   11.59769
      H1    -6.35295   -3.21217   12.43847
       H    -6.01003   -4.67924    9.96265
       O    -5.87954   -4.73326    9.02194
      H1    -6.55264   -4.15610    8.67566
       H    -7.00038   -0.67204   11.04951
       O    -7.19639    0.25842   10.96069
      H1    -6.49891    0.57633   10.39189
       H    -4.79410    4.87840    8.39165
       O    -5.23702    4.11947    8.76514
      H1    -6.08354    4.15264    8.33933
       H    -0.86161    0.36366    6.74739
       O    -0.75186   -0.39505    6.12808
      H1    -0.74794   -1.14202    6.73799
       H    -4.60567    0.99966    4.56027
       O    -5.13428    1.69698    4.99385
      H1    -5.85851    1.26373    5.49194
       H    -8.67094   -2.14404    9.18421
       O    -8.43684   -3.03263    8.85329
      H1    -9.29505   -3.43063    8.62337
       H    -3.41108   -2.46767    6.53101
       O    -3.35745   -1.51247    6.36423
      H1    -2.43138   -1.40466    6.30641
       H    -7.00604   -0.15885    6.78414
       O    -7.37588    0.66911    6.50650
      H1    -7.00458    1.31390    7.14893

