60
frame 2 | Written by MDAnalysis XYZWriter (release 2.4.3)
       H    15.71692   17.43521   -1.76927
       O    15.45570   16.67016   -1.25352
      H1    15.02985   16.13085   -1.90946
       H    13.86061   10.29966   -3.40971
       O    14.22820   10.81604   -2.66859
      H1    14.99274   11.25159   -3.03941
       H    15.92016   11.15125    0.38650
       O    15.34949   11.56691   -0.28681
      H1    15.07642   10.87379   -0.86986
       H     8.85274   11.72081    2.67507
       O     9.80503   11.88395    2.72449
      H1    10.13350   11.27354    3.36865
       H    11.00179   12.73848   -2.62689
       O    10.16882   12.26712   -2.67202
      H1     9.57987   12.73335   -2.03921
       H    11.45028   16.47024   -1.86451
       O    12.29692   16.82137   -1.54659
      H1    12.45014   16.15820   -0.90372
       H    13.37612   12.09233   -2.20289
       O    12.75413   12.84563   -2.10447
      H1    13.16688   13.59444   -2.58915
       H    14.13738   12.22890    4.60082
       O    13.63644   11.91491    3.82027
      H1    13.21455   11.08317    4.12830
       H    10.36031   17.29609    0.97472
       O    10.43505   18.24863    1.13065
      H1    11.09793   18.19940    1.84159
       H     8.83579   14.55699   -0.48288
       O     8.50718   13.89572   -1.10088
      H1     8.39364   14.41041   -1.91107
       H    13.63743   11.78277    0.07509
       O    12.84994   11.96570    0.60876
      H1    12.04337   11.67886    0.10859
       H     9.51762   15.13589    1.54351
       O     9.81203   15.46423    0.69888
      H1    10.77220   15.31939    0.77310
       H    15.24644   14.65431   -3.44094
       O    14.43790   14.94205   -3.00185
      H1    14.07615   15.65147   -3.54443
       H    10.64548   13.40841    3.10622
       O    11.46339   13.93632    3.27605
      H1    12.20272   13.31926    3.14917
       H    12.94938   10.24794    1.43297
       O    12.76108    9.30627    1.44055
      H1    12.28920    9.13553    2.26102
       H    15.92056   14.16362    4.70860
       O    15.15787   14.53818    4.21982
      H1    14.72500   15.10836    4.85151
       H    15.21944   11.83624    2.20532
       O    16.15202   11.96051    2.43491
      H1    16.17140   12.52557    3.19856
       H    10.14653   11.79424    0.50982
       O    10.40980   11.13762   -0.14404
      H1    10.22075   11.57964   -0.98679
       H    13.69246   15.90153    0.98906
       O    14.47587   16.37816    1.26399
      H1    14.85450   16.62293    0.40538
       H    12.10442   14.38077    1.72038
       O    12.37224   14.62562    0.81452
      H1    12.48414   13.74696    0.42367

