60
frame 0 | Written by MDAnalysis XYZWriter (release 2.4.3)
       H    -7.68811  -16.58284   15.75438
       O    -6.79611  -16.36391   16.03234
      H1    -6.60560  -15.58498   15.46617
       H    -1.23858  -14.87040   18.53344
       O    -1.87190  -15.55151   18.41675
      H1    -1.59483  -15.95488   17.55506
       H    -8.10816  -14.18773   17.95540
       O    -7.57364  -14.99237   18.17177
      H1    -7.33110  -15.34251   17.30592
       H    -4.29358  -15.05308   15.86853
       O    -4.52063  -15.22738   14.95498
      H1    -4.19466  -14.41466   14.55892
       H    -1.07011  -15.54199   15.66905
       O    -0.63805  -16.25680   16.13269
      H1    -0.51700  -16.96804   15.45737
       H    -7.68666  -10.52101   17.06448
       O    -7.20250  -11.05143   17.69897
      H1    -7.83594  -11.76096   17.93965
       H    -6.58412  -18.13733   18.30861
       O    -7.40485  -18.26161   18.81328
      H1    -7.20828  -19.14755   19.16402
       H    -3.37374  -17.91165   17.98892
       O    -4.15902  -17.39813   17.77077
      H1    -4.64642  -17.39358   18.58582
       H    -7.36638  -17.97037   13.41685
       O    -6.46977  -17.97760   13.71025
      H1    -6.42961  -17.35284   14.43950
       H    -3.38985  -16.44451   14.08281
       O    -2.87269  -17.23229   13.77858
      H1    -2.30312  -16.87014   13.08327
       H    -4.04103  -12.46143   13.09070
       O    -3.75316  -13.34363   12.89067
      H1    -3.08067  -13.48049   13.61356
       H    -5.67512  -14.51588   18.70847
       O    -4.75441  -14.51602   18.42218
      H1    -4.46969  -15.42628   18.62927
       H    -2.75515  -10.95828   18.56278
       O    -2.49259  -10.13574   18.15903
      H1    -3.21511   -9.51816   18.38718
       H    -1.23128  -13.30649   15.46691
       O    -1.55215  -13.90404   14.79449
      H1    -0.82880  -13.94592   14.14236
       H    -2.92774  -10.26257   16.47759
       O    -3.47448  -10.33618   15.67377
      H1    -4.27830   -9.85750   15.89820
       H    -5.90414  -11.80325   16.10861
       O    -5.67095  -11.79634   15.17708
      H1    -4.71350  -11.64835   15.21158
       H    -7.02003  -13.22177   14.57409
       O    -7.62728  -13.90304   14.82695
      H1    -8.45551  -13.42031   14.97853
       H     0.98923  -16.47308   16.91357
       O     1.70251  -16.53805   17.55578
      H1     2.10362  -17.38700   17.29478
       H     0.36708  -12.44582   16.82777
       O    -0.57847  -12.37416   17.02482
      H1    -0.76793  -11.49147   16.67548
       H    -9.64459  -13.46823   17.66006
       O    -9.33035  -12.95629   18.39163
      H1    -9.39108  -13.51308   19.16504

