60
frame 2 | Written by MDAnalysis XYZWriter (release 2.4.3)
       H     4.76450   16.14533    8.43074
       O     4.43993   16.34258    7.54986
      H1     4.54025   15.48387    7.08508
       H     3.59571   13.44755    8.84874
       O     3.49597   13.54017    7.89803
      H1     2.95119   12.80156    7.65522
       H    -1.55501   14.38714   10.53204
       O    -0.81781   13.79294   10.76377
      H1    -0.88366   13.06803   10.11988
       H     1.34567   12.73192    6.51453
       O     1.76255   11.88364    6.75789
      H1     2.28793   11.64952    5.99922
       H    -3.33453   16.31048   10.16272
       O    -3.40295   15.40996   10.44802
      H1    -4.04544   15.37278   11.14298
       H     1.46938   18.89652    4.50551
       O     2.18402   18.35672    4.84761
      H1     2.25417   18.66031    5.75640
       H     3.65576   13.78236    4.91497
       O     4.17893   14.57938    4.94779
      H1     3.52716   15.28311    4.83595
       H     1.28590   15.99682   10.67841
       O     1.49142   15.16880   11.10879
      H1     0.64169   14.68267   11.02409
       H     3.43575   17.70985    7.49469
       O     2.73180   18.37888    7.52257
      H1     2.77251   18.73525    8.42423
       H     2.97749   14.02079   10.44682
       O     3.80816   13.58923   10.68980
      H1     4.35718   14.34137   11.06061
       H    -3.62260   14.59512    5.54018
       O    -2.68603   14.58369    5.76004
      H1    -2.69724   13.98043    6.51868
       H    -0.11731   17.79434   10.46813
       O     0.78802   17.63228   10.12706
      H1     0.58525   17.25985    9.22317
       H    -0.32534   15.34513    3.70946
       O    -1.08242   14.85338    3.36851
      H1    -1.57003   14.58074    4.17993
       H    -3.40810   12.79033    8.53725
       O    -2.92509   13.58111    8.33689
      H1    -3.02083   14.18918    9.08185
       H    -1.78885   17.88056    4.24437
       O    -1.99922   18.71162    3.76610
      H1    -1.65367   18.51263    2.88671
       H    -2.48613   16.35974    6.23502
       O    -2.23961   17.28868    6.10284
      H1    -3.07264   17.72149    5.82735
       H    -0.88456   17.02160    7.39774
       O     0.07399   16.92741    7.55969
      H1     0.25120   16.10583    7.11885
       H     1.50860   15.20651    5.62069
       O     1.36207   14.66586    6.43500
      H1     2.20795   14.60840    6.86996
       H     1.45472   16.16957    3.11817
       O     1.58088   15.95759    4.06854
      H1     1.89621   16.77244    4.41954
       H    -0.54625   10.98772    8.49754
       O    -1.09504   11.45643    9.16508
      H1    -1.74860   11.95003    8.67076

