60
frame 1 | Written by MDAnalysis XYZWriter (release 2.4.3)
       H     9.94575   -7.35355   13.30488
       O    10.49202   -8.10434   13.54532
      H1    11.38564   -7.73984   13.63238
       H    10.79113  -11.24618   11.87156
       O    11.10947  -11.63972   12.71223
      H1    10.33382  -11.65804   13.27092
       H     9.19620  -14.13255   12.05209
       O     9.85603  -14.78148   11.80918
      H1     9.35258  -15.59444   11.65278
       H    12.26564   -7.01923   11.82690
       O    11.95465   -7.47465   11.02286
      H1    11.17959   -7.99024   11.40504
       H     9.43388   -9.57827   10.35671
       O    10.33049   -9.94622   10.50193
      H1    10.25227  -10.73836    9.96979
       H     5.95571  -10.79842   11.32377
       O     6.76070  -10.37184   11.67024
      H1     6.46847  -10.13651   12.52372
       H    11.09386  -12.67832    9.40057
       O    10.66519  -12.03918    8.86728
      H1    11.42410  -11.67450    8.41220
       H    14.52787   -9.49423   13.56867
       O    14.72586   -8.52610   13.48213
      H1    15.61977   -8.41788   13.83278
       H    17.08363  -11.33258   12.18971
       O    16.50888  -11.88047   12.75047
      H1    15.72543  -11.33898   12.90381
       H    11.63973  -14.99716    9.22605
       O    10.67343  -15.00798    9.20586
      H1    10.49637  -14.74958   10.12445
       H    13.96518  -13.91699   15.40113
       O    14.30701  -13.73028   14.51058
      H1    13.70248  -14.19431   13.90248
       H     7.52482  -12.02081   12.15590
       O     7.70896  -12.93646   12.40471
      H1     7.12953  -13.37985   11.79683
       H    11.52073  -10.16523   16.50207
       O    12.46406  -10.02922   16.68001
      H1    12.69668   -9.14700   16.36318
       H     8.59369  -12.65688   14.58632
       O     9.39752  -12.22045   14.85421
      H1     9.65928  -12.69803   15.67037
       H    10.11882   -9.04608   14.88718
       O     9.94071   -9.57648   15.67839
      H1     9.70269  -10.43517   15.33077
       H    10.67453  -15.62070   13.35886
       O    11.15836  -16.19420   13.96186
      H1    11.49529  -15.58506   14.64818
       H    11.25499   -8.89044    9.29353
       O    11.43003   -8.45543    8.44105
      H1    12.01842   -9.02927    7.93641
       H    11.83954  -12.58151   11.50229
       O    12.21270  -13.20331   10.83603
      H1    13.07191  -12.78024   10.62642
       H    13.29732  -11.98213   14.20953
       O    13.46427  -11.11679   13.80936
      H1    12.62698  -11.05669   13.33172
       H    12.83770  -15.59943   12.43300
       O    13.50602  -14.94208   12.27696
      H1    13.06738  -14.20825   11.79204

