60
frame 1 | Written by MDAnalysis XYZWriter (release 2.4.3)
       H    -6.24873   -7.25984    3.80702
       O    -7.10620   -6.95720    4.16294
      H1    -7.76312   -7.41099    3.64251
       H    -8.60137  -10.74861    2.05822
       O    -8.25208  -11.59859    2.33241
      H1    -7.64514  -11.84621    1.62650
       H    -8.00937   -7.77586    5.56523
       O    -8.66900   -8.28469    6.07628
      H1    -9.19706   -7.57867    6.48634
       H    -9.09299   -9.60662    7.95555
       O    -9.16302   -9.96682    8.86313
      H1    -8.58680  -10.74535    8.88554
       H   -10.03836  -12.12029    6.39716
       O   -10.35898  -12.97133    6.67177
      H1   -10.91775  -12.74009    7.45308
       H   -12.40093  -14.36655    3.39531
       O   -13.33552  -14.64278    3.34821
      H1   -13.25049  -15.59425    3.18593
       H   -12.11847  -11.83521    1.23421
       O   -12.77754  -11.22648    0.88535
      H1   -13.24830  -10.95091    1.69473
       H   -10.93758   -6.91637    8.05214
       O   -10.46639   -6.69997    7.23640
      H1   -11.10300   -6.92918    6.54579
       H    -9.79703  -12.40218    1.57518
       O   -10.59547  -12.92843    1.49536
      H1   -10.39029  -13.40659    0.69683
       H   -14.11310   -8.63924    6.75658
       O   -13.97031   -9.53748    7.09693
      H1   -14.82006   -9.94604    7.04126
       H   -11.26686   -8.42287    0.35912
       O   -11.44130   -8.73007    1.22680
      H1   -11.65648   -9.67855    1.13241
       H   -12.38206   -6.27128    4.53015
       O   -12.32099   -7.08190    5.04160
      H1   -11.73785   -7.66479    4.56144
       H   -15.58238   -7.79175    5.55264
       O   -15.08684   -7.00417    5.81574
      H1   -14.63043   -6.78029    4.99176
       H   -13.68814   -7.70540    3.98008
       O   -14.39355   -7.87512    3.34372
      H1   -14.40852   -8.84815    3.30361
       H   -10.24514  -14.81446    4.07281
       O   -10.66057  -14.82729    3.19889
      H1   -10.40691  -14.00100    2.78588
       H    -8.30904  -10.27914    5.31434
       O    -8.92958  -11.02826    5.35675
      H1    -8.39616  -11.78940    5.09496
       H   -11.55442  -10.07192    4.61293
       O   -11.17091   -9.27692    4.20842
      H1   -10.24140   -9.48518    4.27842
       H    -8.36921   -8.51299    1.86358
       O    -8.83442   -8.65324    2.70759
      H1    -9.76639   -8.91441    2.47502
       H   -14.58120  -11.58004    3.00824
       O   -14.23016  -10.72890    3.21671
      H1   -13.40411  -10.92065    3.67735
       H   -11.88316  -12.04477    5.55779
       O   -12.42432  -11.40585    5.12466
      H1   -13.00904  -11.10180    5.84768

