60
frame 1 | Written by MDAnalysis XYZWriter (release 2.4.3)
       H    -7.85653    4.45786   -0.87334
       O    -8.18887    5.34857   -0.75977
      H1    -8.27458    5.42773    0.19866
       H   -11.41345    7.26544   -4.86177
       O   -11.58493    6.53030   -4.28503
      H1   -12.20519    6.89378   -3.62863
       H   -12.26179    6.19424   -1.13826
       O   -12.40165    5.31173   -0.78984
      H1   -11.60109    4.82747   -1.09831
       H   -12.46476    2.77602   -6.20117
       O   -12.24423    3.66025   -5.87405
      H1   -11.69882    3.44838   -5.10033
       H    -7.36055    1.61505   -2.09816
       O    -7.49266    0.63445   -2.04842
      H1    -8.27686    0.62465   -1.46501
       H    -9.89353    4.30705   -2.47254
       O   -10.18041    3.88156   -1.62839
      H1    -9.68965    4.42855   -0.98058
       H   -14.12382    4.88055   -3.67140
       O   -14.34487    4.75652   -4.63565
      H1   -13.47580    4.45855   -4.96635
       H   -13.95499    0.87739   -3.89748
       O   -13.12360    0.48954   -4.14267
      H1   -12.44683    1.05207   -3.73134
       H    -9.66122    2.32403   -0.94014
       O    -9.22305    1.66084   -0.40561
      H1    -9.94138    1.15918   -0.02148
       H   -10.31071    5.51023   -4.07848
       O    -9.65521    4.83938   -4.22187
      H1    -8.97806    5.29260   -4.72042
       H    -7.21953    6.55446   -5.77248
       O    -7.50331    5.65926   -5.93460
      H1    -6.95278    5.17505   -5.30018
       H   -10.33222    2.04710   -3.77148
       O   -11.23179    2.28950   -3.57492
      H1   -11.20272    2.60926   -2.69111
       H    -8.53315    0.69965   -3.52687
       O    -8.78004    1.01843   -4.42954
      H1    -8.51940    0.22344   -4.91240
       H    -5.88450    3.33641   -4.93476
       O    -6.01556    4.00680   -4.24289
      H1    -5.10098    4.32433   -4.12766
       H    -8.86727    3.96230    1.66790
       O    -8.71314    3.09837    2.06263
      H1    -8.82118    2.54273    1.28367
       H    -6.37872    3.67373   -2.63396
       O    -6.74307    3.39406   -1.76924
      H1    -6.07634    3.82911   -1.18623
       H   -12.26028    8.27337   -1.05982
       O   -12.04778    7.84949   -1.90858
      H1   -11.13525    8.04429   -2.12162
       H    -8.50821    2.55122   -6.12997
       O    -8.22565    2.69343   -7.07277
      H1    -8.96762    3.28432   -7.29875
       H   -11.87957    3.94688    1.63238
       O   -11.76937    4.89340    1.68767
      H1   -12.10369    5.25185    0.88501
       H    -8.51972    6.83340   -2.50957
       O    -9.00311    7.65731   -2.68147
      H1    -8.84053    7.89266   -3.59432

