60
frame 2 | Written by MDAnalysis XYZWriter (release 2.4.3)
       H    15.84517   13.68820    7.99606
       O    15.97259   13.04390    7.28979
      H1    16.62791   12.43929    7.66869
       H    10.88715    9.47287    4.34870
       O    10.75121   10.36616    4.72219
      H1    10.05893   10.23741    5.38368
       H    14.62156   13.64037   10.74182
       O    15.17208   12.83411   10.75770
      H1    14.64406   12.19644   11.22230
       H    17.98262   13.27211    5.08102
       O    17.14224   12.86124    4.89795
      H1    16.76670   12.85068    5.77417
       H     8.85274   11.72081    2.67507
       O     9.80503   11.88395    2.72449
      H1    10.13350   11.27354    3.36865
       H    10.96518    9.91562    9.05794
       O    10.29514   10.17709    9.70108
      H1     9.63690   10.60505    9.13259
       H    14.14406    6.87647    3.59835
       O    13.56616    6.62534    4.31713
      H1    14.02592    6.98482    5.12692
       H     8.30025   10.27931    7.19415
       O     8.59704    9.69672    6.46725
      H1     9.07319    9.04790    6.98858
       H    14.13738   12.22890    4.60082
       O    13.63644   11.91491    3.82027
      H1    13.21455   11.08317    4.12830
       H    16.23276    9.40968    9.34466
       O    16.02620    8.48905    9.39200
      H1    15.49957    8.36256   10.18607
       H    13.30334    9.48760    7.81098
       O    12.81806   10.00403    8.42576
      H1    13.26768    9.80461    9.28047
       H    11.45316   14.25873    5.12814
       O    11.73761   14.45020    6.01966
      H1    12.28182   13.71609    6.26292
       H     9.85141    7.30744    7.23315
       O    10.19360    7.89174    7.92692
      H1     9.59485    7.79655    8.68246
       H    10.64548   13.40841    3.10622
       O    11.46339   13.93632    3.27605
      H1    12.20272   13.31926    3.14917
       H    15.13219    8.25559    6.74737
       O    14.42099    8.73269    6.23928
      H1    14.90795    9.00428    5.43606
       H    13.16590   11.42049    6.94382
       O    13.42905   12.30514    6.62772
      H1    14.27331   12.47891    7.05669
       H    15.92056   14.16362    4.70860
       O    15.15787   14.53818    4.21982
      H1    14.72500   15.10836    4.85151
       H    17.60844   11.41260    9.13995
       O    16.80585   11.14603    9.57879
      H1    16.43747   12.00438    9.84006
       H    11.02151   11.52710   12.12115
       O    11.40393   11.99944   11.36911
      H1    11.13224   11.44228   10.62723
       H    16.59001    9.36935    4.55797
       O    15.79139    9.40832    3.98801
      H1    15.78100   10.27276    3.55611

