60
frame 3 | Written by MDAnalysis XYZWriter (release 2.4.3)
       H   -16.18007  -17.18089   16.29217
       O   -15.77474  -17.12081   15.43599
      H1   -15.98541  -17.77325   14.76096
       H   -11.87725  -19.36321   19.26343
       O   -11.07870  -19.76516   18.90510
      H1   -10.79479  -19.41422   17.98985
       H   -12.12452  -14.71842   14.61642
       O   -12.39641  -15.61853   14.48218
      H1   -13.31494  -15.57360   14.20875
       H    -5.94847  -18.05512   12.58598
       O    -5.44226  -18.02972   11.79806
      H1    -4.63253  -18.38968   12.19820
       H    -4.77158  -16.20827   15.37689
       O    -4.40737  -16.85629   14.76449
      H1    -4.24871  -16.23237   14.03160
       H   -13.83791  -19.74485   11.35134
       O   -13.90149  -19.47855   12.28526
      H1   -13.03742  -19.19030   12.54820
       H    -8.20021  -14.28837   16.02461
       O    -7.57863  -15.00378   15.81629
      H1    -7.52720  -15.03288   14.84502
       H    -6.40945  -17.82221   14.55185
       O    -7.12629  -18.02353   13.89878
      H1    -7.86389  -18.47614   14.32573
       H    -7.58128  -14.54296   12.38068
       O    -7.30785  -15.17382   13.00505
      H1    -7.59497  -15.99653   12.70234
       H   -11.96620  -12.65061   16.01321
       O   -11.56168  -13.29126   15.44573
      H1   -11.45037  -12.86312   14.59846
       H   -11.62644  -17.67070   12.47121
       O   -11.67134  -18.26151   13.26226
      H1   -11.86231  -17.74918   14.05804
       H    -8.96991  -16.92584   18.00204
       O    -8.92536  -17.02888   17.03692
      H1    -8.36288  -16.34283   16.67863
       H    -7.34611  -19.02469   10.68049
       O    -8.05463  -18.38657   10.55058
      H1    -7.59028  -17.70376   10.14796
       H    -8.80884  -19.92928   17.08442
       O    -9.59334  -19.59070   16.65783
      H1    -9.44623  -18.66451   16.75179
       H   -10.14394  -13.02835   16.66485
       O    -9.39563  -13.22633   17.19239
      H1    -9.77310  -13.54104   17.99637
       H   -11.75836  -16.04992   16.04975
       O   -11.62788  -16.53183   16.93315
      H1   -10.65150  -16.50430   16.89459
       H   -14.54429  -17.82450   16.54952
       O   -13.83312  -18.22918   17.08392
      H1   -12.97231  -17.79658   16.84279
       H    -4.92941  -14.70499   17.68099
       O    -5.18384  -14.53443   16.75027
      H1    -6.14033  -14.66818   16.50814
       H    -7.27876  -18.57749   19.26965
       O    -7.95799  -19.02733   19.76255
      H1    -8.78483  -18.67817   19.44732
       H   -10.83726  -17.93084   10.38023
       O   -11.58159  -17.32670   10.34913
      H1   -12.08933  -17.49139    9.56266

