60
frame 2 | Written by MDAnalysis XYZWriter (release 2.4.3)
       H    -5.87231  -17.75695    0.54709
       O    -5.29107  -18.52107    0.54549
      H1    -4.41134  -18.15660    0.42439
       H     0.63276  -13.60173   -1.03481
       O    -0.22749  -13.92702   -0.72565
      H1    -0.65495  -13.09217   -0.50533
       H    -2.18671  -16.31851    4.78108
       O    -1.49091  -15.86737    4.28670
      H1    -1.75543  -15.89096    3.38398
       H    -0.30589  -18.31458    3.63884
       O     0.48181  -17.72830    3.62929
      H1     0.15907  -16.89500    4.01473
       H    -1.75436  -14.11887    1.56046
       O    -2.09528  -15.02796    1.76417
      H1    -3.05013  -14.84399    1.87150
       H     0.90209  -13.51744    1.21734
       O     0.66865  -14.04974    1.99251
      H1     0.01972  -13.49645    2.44231
       H    -1.24450  -14.87985   -1.98234
       O    -1.59918  -15.39540   -2.72347
      H1    -2.54746  -15.24780   -2.71673
       H    -1.34622  -15.43702   -4.59569
       O    -1.17904  -15.79930   -5.47828
      H1    -0.30419  -16.19095   -5.40871
       H    -4.84326  -14.62335   -1.84558
       O    -4.85129  -15.22858   -2.61065
      H1    -5.31634  -15.98903   -2.23726
       H    -0.93886  -16.13267    0.45335
       O    -0.55266  -16.93745    0.08207
      H1     0.24840  -16.68931   -0.39188
       H     3.08257  -15.49172   -4.10860
       O     3.04127  -16.42930   -3.82017
      H1     3.99727  -16.63059   -3.62679
       H     1.61142  -17.29148    1.80314
       O     2.43842  -17.05252    1.38718
      H1     2.15088  -16.86111    0.46448
       H    -1.85258  -17.37890   -3.42819
       O    -1.77907  -18.21938   -3.91205
      H1    -0.94160  -18.52080   -3.53214
       H     3.77335  -15.67067    0.54215
       O     3.84914  -15.20925   -0.30281
      H1     4.03828  -15.91929   -0.96586
       H    -2.72516  -18.82171   -0.98169
       O    -3.02402  -17.97315   -0.65209
      H1    -2.20357  -17.49934   -0.58933
       H     2.37156  -12.48613   -1.70513
       O     2.21338  -13.45735   -1.81984
      H1     2.80467  -13.89577   -1.20369
       H     2.10896  -17.01665   -2.34894
       O     1.83471  -17.23601   -1.44120
      H1     2.49433  -17.88683   -1.13632
       H    -4.51055  -14.19961    0.50960
       O    -4.48117  -13.74779   -0.36113
      H1    -5.07167  -13.00088   -0.20751
       H    -5.73499  -15.78474    1.44886
       O    -4.98096  -15.33575    1.84880
      H1    -4.77657  -15.97879    2.57154
       H     3.06745  -15.66606    3.49065
       O     2.47603  -15.12999    4.02144
      H1     1.72679  -14.96202    3.46415

