60
frame 0 | Written by MDAnalysis XYZWriter (release 2.4.3)
       H    18.35009    1.26027   -1.99308
       O    18.97423    0.62703   -2.38218
      H1    18.54077   -0.23490   -2.29140
       H    14.45857    1.52295    1.31366
       O    15.20502    1.34392    0.70506
      H1    15.32751    0.37693    0.71581
       H    17.65254    6.79369    0.51964
       O    17.69502    6.76458   -0.43849
      H1    17.92809    7.64859   -0.65008
       H    19.10116    2.61019    1.46209
       O    18.72622    3.28531    0.91747
      H1    18.12704    3.72452    1.53744
       H    16.82436   -2.04586    2.72869
       O    17.50136   -2.33914    3.32794
      H1    18.32456   -2.29677    2.81412
       H    14.71362   -1.16223    2.19875
       O    15.31595   -1.20414    1.42823
      H1    14.69882   -1.57384    0.80556
       H    16.41550   -1.94707   -2.40479
       O    17.07175   -1.32923   -2.09373
      H1    16.67098   -0.49826   -2.39504
       H    16.71619    2.13984   -0.56378
       O    17.41818    2.39360   -1.19344
      H1    18.04745    2.89721   -0.62072
       H    17.39897    3.79460   -3.99794
       O    16.80718    4.08642   -3.31424
      H1    16.65038    3.33662   -2.75328
       H    17.37674    7.43414    2.47534
       O    18.17476    7.91667    2.21284
      H1    18.82482    7.23680    1.99714
       H    17.69106   -1.47169   -0.39111
       O    18.27364   -1.88770    0.23124
      H1    18.79441   -2.45280   -0.32375
       H    18.42167    1.58324    5.30164
       O    18.30379    2.49515    5.57347
      H1    17.41762    2.50955    5.96788
       H    14.61080    4.12380    0.84497
       O    15.17248    4.43756    1.56359
      H1    14.95115    5.39397    1.60491
       H    16.57641    4.19685    3.30719
       O    17.39604    3.67890    3.29215
      H1    17.50588    3.33337    4.21171
       H    18.28008    5.07805   -2.24743
       O    19.17021    5.34750   -2.15430
      H1    19.09825    5.97769   -1.40352
       H    16.89609    2.18508    2.96021
       O    16.78684    1.22404    2.89721
      H1    16.17276    1.16105    2.19297
       H    14.77951    0.52742   -1.34061
       O    14.82515    1.06812   -2.16503
      H1    13.89772    1.15491   -2.49656
       H    18.44024    0.26759    3.89742
       O    19.32603    0.21245    4.24043
      H1    19.69726   -0.57330    3.81613
       H    14.22668    3.42996    2.66220
       O    13.78254    2.59598    2.90020
      H1    14.42272    2.15936    3.43084
       H    13.75831    4.15171   -1.28238
       O    14.15681    4.96943   -1.62819
      H1    15.06914    4.74057   -1.62955

