60
frame 2 | Written by MDAnalysis XYZWriter (release 2.4.3)
       H    14.62156   13.64037   10.74182
       O    15.17208   12.83411   10.75770
      H1    14.64406   12.19644   11.22230
       H    14.39142   12.02719   17.26593
       O    14.16971   12.96279   17.01614
      H1    13.23941   12.96286   16.78572
       H    18.35299    9.91306   15.83207
       O    18.02830   10.82708   15.96669
      H1    18.36846   11.27523   15.17849
       H    18.02083    8.49184   12.04435
       O    18.96298    8.24900   12.14097
      H1    18.93313    7.54990   12.83248
       H    16.98594   17.55513   18.01504
       O    17.54327   16.97522   17.50874
      H1    17.75125   16.26580   18.14375
       H    13.43704    8.81164   14.87983
       O    13.37121    9.76723   15.05332
      H1    13.63733   10.13956   14.20488
       H    15.35351   15.19195   14.06225
       O    15.28593   15.96582   13.46355
      H1    15.39061   16.73204   14.07081
       H    13.10554    9.12364   18.62247
       O    12.29202    9.51464   18.20384
      H1    11.96895    8.85922   17.58252
       H    15.02285    8.64753   12.29198
       O    14.35251    8.68870   11.58937
      H1    13.60531    8.28780   12.03307
       H    12.99812   11.55653   12.00708
       O    13.75147   11.20483   12.48236
      H1    14.04209   10.39741   12.00568
       H    16.29966    7.86999   16.91269
       O    16.59853    7.78235   16.00843
      H1    17.52600    7.95897   16.05714
       H    15.77182    6.44253   13.02558
       O    15.63439    7.26516   13.47850
      H1    15.78974    7.01783   14.38845
       H    14.19536    5.09256   17.75513
       O    14.47769    6.00070   17.71258
      H1    15.40780    5.95279   17.59659
       H    14.94950   15.84787   18.41699
       O    15.64612   15.13907   18.43127
      H1    15.23022   14.42455   17.93488
       H    14.66054    9.95328   16.46410
       O    15.33920   10.13911   17.11810
      H1    16.12981   10.34021   16.61606
       H    18.97822   14.58501   14.43654
       O    19.28217   15.47488   14.19242
      H1    18.46115   15.88132   13.88225
       H    15.22562   12.77254   13.94415
       O    15.72354   13.44516   14.42655
      H1    15.34065   13.31386   15.30906
       H    16.67998    3.52460   16.82173
       O    17.31891    4.27106   16.91865
      H1    17.40513    4.61101   16.00625
       H    17.09825   10.63726   12.35393
       O    16.78043    9.85700   11.92897
      H1    16.80224   10.17180   11.01748
       H    17.95452   14.09252   10.28834
       O    17.65611   14.16997   11.20281
      H1    16.80467   13.70785   11.21662

