60
frame 1 | Written by MDAnalysis XYZWriter (release 2.4.3)
       H     2.12483    6.81791   -5.83424
       O     1.77885    6.76665   -6.73172
      H1     2.28164    6.05353   -7.16884
       H     5.25594    9.57168   -1.87856
       O     4.67928    8.81065   -1.93081
      H1     5.21464    8.04712   -1.66752
       H     1.43676    1.28986    0.64124
       O     1.40886    2.19848    0.27601
      H1     0.75285    2.13717   -0.44821
       H     1.56587    7.94169   -4.14991
       O     2.47659    7.68549   -4.25130
      H1     2.55759    7.05263   -3.55793
       H    -0.37016    7.29293   -1.21716
       O    -0.18459    6.66483   -0.50896
      H1     0.55109    6.13171   -0.80725
       H     4.30614    4.61089   -0.18051
       O     4.13593    5.54460   -0.25326
      H1     5.04145    5.86603   -0.31221
       H     4.42812    2.00382   -5.92532
       O     3.89354    2.58297   -5.38631
      H1     4.51626    3.27966   -5.18997
       H     2.42031    2.68336   -2.96958
       O     1.65951    3.17575   -3.34095
      H1     1.83494    3.23585   -4.29246
       H     4.16946    5.94912    1.55421
       O     4.40366    6.41942    2.34783
      H1     3.59284    6.32400    2.85580
       H     3.43046    5.70422   -1.88284
       O     2.77437    5.55081   -2.56533
      H1     2.83273    4.59483   -2.70911
       H     5.50348    5.25140   -5.42023
       O     5.54268    4.68790   -4.64335
      H1     5.04991    5.14967   -3.96819
       H     2.06590    8.73481    0.70934
       O     2.37846    9.54235    0.29693
      H1     3.16568    9.26363   -0.20664
       H     4.20373    2.65944    1.39487
       O     4.12541    2.74171    0.43722
      H1     3.17953    2.62781    0.34270
       H     6.09392    8.20157   -5.00860
       O     6.30414    7.81143   -4.16543
      H1     5.82824    8.31645   -3.51368
       H     6.29123    4.16084   -0.89066
       O     5.86153    3.64709   -1.59874
      H1     5.54033    2.87091   -1.10547
       H    -0.31483    7.21776   -4.68013
       O    -0.16059    8.16480   -4.70092
      H1    -0.53820    8.45108   -3.84980
       H     0.68087    7.37608    0.92346
       O     1.06067    7.56667    1.81287
      H1     1.00389    6.71795    2.31576
       H     0.29511    5.27801   -3.04576
       O    -0.46374    5.65946   -3.50278
      H1    -0.48660    5.20459   -4.34241
       H    -0.53310    1.47518   -2.08201
       O    -0.50079    2.40189   -1.79541
      H1     0.06733    2.80321   -2.46495
       H     3.28338    0.65826   -2.44330
       O     3.61951    1.53972   -2.50662
      H1     4.31438    1.46654   -3.19811

