60
frame 2 | Written by MDAnalysis XYZWriter (release 2.4.3)
       H     4.52662   -6.77468   14.74752
       O     4.04317   -7.58855   14.57119
      H1     4.00033   -7.54289   13.58847
       H     1.03456   -8.18072   13.39611
       O     1.35344   -7.37795   13.83485
      H1     2.20745   -7.65504   14.18938
       H     3.38388   -0.37984   15.43599
       O     3.88135   -1.16715   15.16366
      H1     3.74809   -1.14659   14.17590
       H     6.07379   -1.08021   16.90116
       O     6.73611   -1.77667   16.89452
      H1     6.79515   -1.98158   15.95303
       H    -0.19339   -6.98181   17.71432
       O     0.55847   -7.34232   17.22370
      H1     0.20460   -8.02695   16.63970
       H     2.44064   -7.04954   17.56528
       O     3.01077   -6.32703   17.87306
      H1     2.49716   -5.86126   18.51747
       H     1.53030   -4.33507   13.27983
       O     0.90115   -3.91006   13.86479
      H1     1.35342   -3.71087   14.66328
       H     4.17205   -5.18263   16.72321
       O     4.73263   -4.59962   16.21618
      H1     5.55358   -5.06638   16.19889
       H     4.00603   -8.61515   16.26286
       O     4.62878   -9.08663   16.83289
      H1     4.46587   -8.66201   17.66788
       H    -0.30809   -6.21602   15.89200
       O    -0.74433   -5.46466   15.47582
      H1    -0.10352   -4.99979   14.92563
       H     4.40297   -3.57246   17.51259
       O     4.02744   -3.01885   18.22685
      H1     3.22445   -2.74571   17.85334
       H     7.42487   -8.72095   18.09481
       O     7.44843   -8.56205   19.06449
      H1     6.76092   -7.87457   19.15366
       H     5.38641   -0.13589   18.88793
       O     4.64822   -0.42059   18.33979
      H1     4.74708   -1.37909   18.30753
       H     1.36319   -2.62516   16.80331
       O     2.09935   -2.96340   16.28396
      H1     2.49243   -2.15030   15.87791
       H     5.59006   -9.58577   13.81718
       O     6.25805   -9.35963   14.47162
      H1     5.76054   -9.12917   15.27726
       H     7.32703   -3.12341   17.85123
       O     7.56168   -3.89061   18.41333
      H1     7.60822   -4.68826   17.85666
       H     7.55399   -5.65423   14.94599
       O     7.37553   -5.07770   15.68818
      H1     7.60868   -4.23192   15.32177
       H     7.67136   -3.19082   13.70039
       O     7.70832   -2.64558   14.52444
      H1     8.67612   -2.56626   14.66415
       H     1.87825   -9.35856   18.05111
       O     2.35429   -9.21091   18.86521
      H1     1.85090   -8.53909   19.32640
       H     9.18171   -7.14596   17.15992
       O     9.15174   -6.19741   17.30441
      H1     8.55848   -5.91997   16.60897

