60
frame 1 | Written by MDAnalysis XYZWriter (release 2.4.3)
       H     3.76217    3.22104  -18.81387
       O     3.12317    3.87884  -18.53407
      H1     3.38035    4.05506  -17.64299
       H     3.95865    2.79830  -13.78272
       O     3.08685    3.06416  -14.01356
      H1     2.97255    3.74941  -13.37903
       H    -1.17541    6.79061  -14.11224
       O    -0.44430    6.15952  -14.12563
      H1    -0.28084    6.02137  -15.07621
       H     2.77685    8.11207  -15.46576
       O     3.53085    7.78056  -14.95451
      H1     3.51776    6.83784  -15.12232
       H    -4.37493    2.05380  -15.48004
       O    -4.07487    2.43423  -16.32870
      H1    -3.34887    3.00541  -16.04789
       H    -3.86617    5.65000  -13.83112
       O    -3.37337    5.97262  -14.62718
      H1    -3.30686    6.90936  -14.45077
       H    -2.34691    5.72435  -18.01987
       O    -1.68206    5.39608  -18.60528
      H1    -1.77737    4.43690  -18.62929
       H     1.90244    1.96148  -18.00616
       O     1.16014    2.23015  -17.40915
      H1     1.26783    3.17528  -17.36913
       H    -2.33003    4.55822  -15.37634
       O    -1.78420    4.06101  -16.02100
      H1    -1.32717    3.37802  -15.47826
       H     0.84270   -0.37023  -15.94756
       O     1.17848    0.37806  -15.41812
      H1     1.14518    1.12571  -16.06139
       H     1.17089    9.91099  -18.76695
       O     0.24352    9.82118  -18.58676
      H1    -0.03194    9.04563  -19.06875
       H     1.08219    9.05462  -17.20303
       O     1.68947    8.35164  -16.92230
      H1     1.50775    7.69874  -17.63021
       H    -0.21546    1.33458  -14.59739
       O    -1.01429    1.84312  -14.45144
      H1    -0.80375    2.48808  -13.77415
       H     0.66679    5.13034  -17.61534
       O     0.63056    4.86064  -16.67482
      H1    -0.29727    4.71583  -16.53745
       H     5.01218    8.09153  -16.75722
       O     5.76971    7.73993  -17.22861
      H1     6.39164    7.62416  -16.51956
       H    -0.24245    4.42426  -12.85294
       O    -0.75989    3.72217  -12.46619
      H1    -0.28951    3.55310  -11.62294
       H    -1.33259   -0.02190  -16.02277
       O    -1.41831   -0.12651  -16.94443
      H1    -1.67299    0.79218  -17.19329
       H    -2.77275    7.92557  -17.23060
       O    -3.16762    7.04939  -17.19179
      H1    -3.08154    6.81038  -16.27299
       H     4.37608    5.28372  -18.72116
       O     4.86660    5.94846  -19.20260
      H1     5.27105    6.44780  -18.47241
       H     3.17906    4.16523  -15.35464
       O     3.23005    5.04957  -15.77409
      H1     2.32408    5.25123  -16.02666

