60
frame 1 | Written by MDAnalysis XYZWriter (release 2.4.3)
       H     7.91655   -5.77063   14.04351
       O     8.77052   -5.70431   13.57725
      H1     8.49807   -5.57837   12.62785
       H     3.08874   -5.90142   16.93198
       O     3.30621   -6.18697   16.04048
      H1     3.65135   -5.37351   15.64034
       H     1.33696   -7.73095   13.80555
       O     1.95479   -6.99452   13.75488
      H1     2.22542   -6.92849   14.66550
       H     7.10840   -3.35148   13.76753
       O     6.84926   -2.61702   14.31464
      H1     6.11755   -3.06901   14.78245
       H     6.38250   -1.21390   17.16217
       O     6.54213   -0.63735   16.41145
      H1     6.81727   -1.20663   15.67467
       H     4.81506   -0.06641   16.36451
       O     3.87749   -0.06765   16.10583
      H1     3.41018    0.15175   16.95395
       H     5.25015   -6.79739   12.83849
       O     5.73055   -6.53268   13.63870
      H1     5.94013   -7.37948   14.03492
       H     1.50182   -5.10477   14.07991
       O     1.44307   -4.12649   14.17000
      H1     1.94401   -3.89422   14.97709
       H     5.12583   -4.96964   14.44951
       O     4.58244   -4.16683   14.46888
      H1     4.36448   -4.01394   13.55048
       H     9.47774   -1.57968   16.04117
       O     9.96386   -0.85375   16.42749
      H1     9.57136   -0.83445   17.29315
       H     4.07860   -7.93597   16.82249
       O     3.89643   -8.86109   17.04521
      H1     4.45971   -8.98724   17.80905
       H     8.41751   -7.81135   17.52352
       O     8.58702   -7.48052   16.63601
      H1     8.99493   -8.23771   16.20823
       H     5.32480   -3.32354   18.01671
       O     4.86427   -2.44884   17.99602
      H1     4.04849   -2.67825   17.57364
       H     6.68431   -5.07760   17.51334
       O     6.47877   -4.94516   18.44717
      H1     5.79644   -5.57412   18.65294
       H     1.54772   -2.36322   16.80531
       O     2.34795   -2.45988   16.30384
      H1     2.73042   -1.56983   16.24259
       H     6.85909  -11.99972   16.55271
       O     6.79647  -11.11742   16.94732
      H1     6.73829  -10.51378   16.21132
       H     4.65622   -9.88991   13.98274
       O     5.23341   -9.41490   14.57194
      H1     4.87288   -9.55326   15.45987
       H     7.95205   -5.89149   15.88279
       O     7.40889   -5.10863   15.80793
      H1     8.10509   -4.44563   15.79696
       H     9.48238   -4.46053   14.80626
       O     9.84982   -3.94331   15.53574
      H1    10.62818   -3.54631   15.14589
       H    10.04288   -6.54891   17.27901
       O    10.92262   -6.12551   17.29479
      H1    10.83446   -5.36442   16.68720

