60
frame 2 | Written by MDAnalysis XYZWriter (release 2.4.3)
       H    11.91904    7.61623  -14.80476
       O    12.02806    7.75590  -13.86674
      H1    11.76883    6.88613  -13.52909
       H    16.22101    5.94936  -13.83321
       O    16.48988    5.61136  -14.68990
      H1    17.41694    5.43474  -14.57428
       H     9.76238    9.47717  -13.75284
       O     8.82219    9.29483  -13.85995
      H1     8.53993   10.01529  -14.45610
       H    11.19223    5.55424  -11.94164
       O    12.10832    5.66453  -11.95402
      H1    12.44056    4.86583  -12.36442
       H     9.41170    7.90488  -17.57108
       O     8.54522    7.84858  -18.02625
      H1     8.22797    6.97814  -17.75792
       H     9.56302    6.25492  -10.90122
       O     9.43965    5.82234  -11.75487
      H1     9.41911    4.85539  -11.59148
       H     7.68397   10.26077  -11.21548
       O     8.35114    9.60226  -10.98410
      H1     8.63081    9.25471  -11.83101
       H    12.16366   11.88248  -16.70169
       O    11.20678   11.71217  -16.72313
      H1    11.01847   11.65550  -17.65830
       H     8.46620    6.25960  -13.65110
       O     8.23884    6.75788  -14.45917
      H1     8.60774    7.62739  -14.28575
       H    11.48287    9.31956  -14.25624
       O    11.55657   10.26665  -14.13283
      H1    11.29152   10.68010  -14.97629
       H    16.53131    6.44153  -11.21960
       O    16.24288    6.77522  -12.09044
      H1    15.34370    7.16116  -11.88161
       H    14.25815    7.57538  -18.68471
       O    14.35887    8.41061  -18.22623
      H1    15.14212    8.85268  -18.61125
       H    15.48195    8.02967  -16.79428
       O    16.37557    7.85797  -16.44710
      H1    16.27815    7.13508  -15.81386
       H    15.37178   10.71883  -14.27697
       O    15.51902   11.61693  -14.61542
      H1    16.33056   11.56818  -15.12538
       H    13.52133   10.13277  -13.37628
       O    14.15375    9.43411  -13.51666
      H1    13.52736    8.75256  -13.87818
       H     9.98247    9.64190   -9.86829
       O    10.82577    9.48149   -9.42175
      H1    11.41166    9.51304  -10.17768
       H    13.95533    8.53842  -11.98072
       O    13.87243    7.85331  -11.29545
      H1    13.20407    7.26346  -11.66505
       H    13.23796    3.95731  -16.01499
       O    12.50603    4.32640  -16.58396
      H1    11.76453    3.77704  -16.22292
       H     9.53153    5.44574  -17.66129
       O     8.72300    5.32546  -17.16486
      H1     8.99017    5.51196  -16.28150
       H    11.52302    8.72285  -17.84561
       O    11.11744    8.76435  -16.96871
      H1    10.94420    9.69439  -16.82323

