60
frame 1 | Written by MDAnalysis XYZWriter (release 2.4.3)
       H     6.05239   18.49886  -10.44575
       O     6.22562   17.56062  -10.44313
      H1     6.74711   17.43686  -11.25994
       H    -0.58055   18.47578  -10.17271
       O    -0.99269   18.55562  -11.04105
      H1    -1.62375   17.83772  -11.14638
       H     1.91640   18.17444   -7.81395
       O     2.85955   18.25434   -7.90735
      H1     3.11339   19.12868   -7.56950
       H     6.78541   16.82484   -8.87469
       O     7.50667   16.80651   -8.20344
      H1     6.99979   16.82287   -7.36827
       H     4.22201   12.85652   -8.26986
       O     3.87294   13.65711   -8.68447
      H1     3.09657   13.32025   -9.21490
       H     0.30254   15.88238   -7.86486
       O     0.23103   16.52070   -7.13864
      H1    -0.50226   17.05166   -7.39896
       H     3.19565   15.34853  -12.01134
       O     3.71207   15.10456  -12.76959
      H1     4.54790   14.79956  -12.40574
       H     0.43623   17.06002   -3.79377
       O     1.19610   17.06002   -4.38397
      H1     0.75226   17.02866   -5.23565
       H     3.07806   14.77028   -5.98680
       O     2.76761   14.02933   -5.46357
      H1     2.35613   14.42810   -4.67313
       H     3.63324   15.00929   -7.63834
       O     3.78842   15.80160   -7.08160
      H1     3.09616   16.40284   -7.37337
       H     1.09810   16.24848  -12.11609
       O     1.55522   16.16095  -11.27351
      H1     2.06419   16.97597  -11.18252
       H     4.84442   13.66384  -10.35055
       O     5.63657   13.99533  -10.84487
      H1     5.96751   13.16214  -11.19455
       H     0.36757   17.88050  -12.57536
       O     0.58672   17.43493  -13.39007
      H1     1.32746   17.91081  -13.70239
       H     0.93573   15.50681   -9.89386
       O     0.76274   14.90892   -9.11813
      H1    -0.14608   14.58489   -9.30299
       H     7.46573   14.99129   -8.45514
       O     7.38670   14.03621   -8.70882
      H1     6.81333   14.03157   -9.49889
       H     4.13854   17.67910  -10.84619
       O     3.43050   18.33747  -10.82586
      H1     3.26540   18.59208   -9.88612
       H     7.25401   17.11380  -14.20658
       O     7.68726   16.38493  -14.68699
      H1     7.43612   15.61746  -14.14388
       H    -2.47078   15.82957  -11.84223
       O    -1.55756   15.49730  -11.84781
      H1    -1.58165   14.62196  -11.43364
       H     6.82110   15.71207   -5.42058
       O     6.26280   16.46095   -5.59962
      H1     5.45673   16.01004   -5.93818
       H     4.38549   16.63870  -15.63265
       O     3.76640   15.90990  -15.64029
      H1     3.66013   15.68310  -14.68497

