60
frame 0 | Written by MDAnalysis XYZWriter (release 2.4.3)
       H    -3.73669   18.70041  -11.21003
       O    -3.71608   18.16563  -10.42805
      H1    -4.20611   18.74406   -9.83645
       H    -7.92787   14.21622   -4.74142
       O    -7.09486   13.77750   -4.42587
      H1    -6.63800   14.55502   -4.07167
       H    -5.38557   18.23433   -1.54006
       O    -5.61485   18.21160   -0.60391
      H1    -4.92717   17.69849   -0.17633
       H    -0.45480   14.69553   -3.98693
       O    -0.84149   14.01809   -3.41822
      H1    -0.40990   13.21582   -3.70828
       H    -6.01587   15.00211   -2.49091
       O    -5.22376   15.39136   -2.89620
      H1    -4.45750   15.00958   -2.45287
       H    -6.77885   18.01252   -8.28379
       O    -6.03682   18.31584   -8.79163
      H1    -5.51656   17.52400   -8.88038
       H    -2.95502   15.44800   -5.35205
       O    -2.83001   14.52626   -5.16279
      H1    -2.19761   14.45649   -4.46254
       H    -4.38624   13.91644   -5.80873
       O    -5.11815   13.66767   -6.38503
      H1    -5.88605   13.60757   -5.79532
       H     1.65759   16.97792   -5.76659
       O     2.63990   16.96124   -5.92402
      H1     2.70339   17.05353   -6.89149
       H    -8.07871   18.97708   -4.14530
       O    -7.30298   19.21010   -3.59168
      H1    -6.56715   18.65993   -3.93382
       H    -1.65681   18.00774   -2.86569
       O    -2.09449   18.12038   -2.00812
      H1    -1.66580   17.54533   -1.39018
       H    -2.27663   18.48797   -6.71799
       O    -2.37866   19.28487   -7.22351
      H1    -3.17669   19.20025   -7.75067
       H    -3.91726   17.54994   -4.89399
       O    -3.57056   17.05212   -5.65293
      H1    -4.34523   16.92487   -6.23173
       H    -2.39260   14.02931   -9.18943
       O    -3.04187   14.27813   -9.88440
      H1    -3.19724   13.42010  -10.30527
       H    -4.72214   17.19069   -3.30079
       O    -4.71093   18.16183   -3.35288
      H1    -4.11880   18.42237   -2.61387
       H     0.21373   15.50447   -5.97726
       O     0.27541   15.86347   -5.08661
      H1    -0.33870   16.60162   -5.06337
       H     0.10910   18.47873   -3.59092
       O    -0.57978   18.31334   -4.26033
      H1    -0.73679   19.22496   -4.58282
       H    -4.29512   15.35430   -8.99853
       O    -4.90808   15.65770   -8.32219
      H1    -4.98204   14.87783   -7.75089
       H    -1.19469   13.29325   -7.44929
       O    -1.54785   14.18403   -7.53204
      H1    -1.99697   14.25058   -6.65743
       H    -2.34287   14.82320   -1.06498
       O    -2.98910   14.29301   -1.55080
      H1    -2.47914   13.83780   -2.24205

