60
frame 1 | Written by MDAnalysis XYZWriter (release 2.4.3)
       H     3.97621   11.89634  -13.35982
       O     3.52016   12.39826  -12.69552
      H1     3.52706   13.29093  -13.02161
       H     0.34404   12.46355  -16.61422
       O     0.40717   12.62701  -17.56770
      H1    -0.01115   11.82664  -17.89705
       H    -3.26042   12.08467  -11.35099
       O    -3.13716   13.01569  -11.49478
      H1    -4.00603   13.36352  -11.78266
       H    -0.46598   11.87643  -11.78087
       O    -0.33481   11.99291  -12.70692
      H1    -0.34836   12.96277  -12.93297
       H    -3.49395   14.23026  -14.98133
       O    -2.74891   14.03632  -15.56844
      H1    -2.02861   13.83241  -14.95457
       H    -0.58779    8.66479  -10.61613
       O    -0.97838    8.99772   -9.76935
      H1    -0.90997    8.15878   -9.24978
       H     0.31651    9.47794   -8.65095
       O     1.15081    9.35845   -8.17484
      H1     0.96760    8.68653   -7.50055
       H     0.41629   11.81665   -9.93518
       O    -0.52115   11.67478   -9.94705
      H1    -0.57701   10.70328  -10.05234
       H     1.09810   16.24848  -12.11609
       O     1.55522   16.16095  -11.27351
      H1     2.06419   16.97597  -11.18252
       H     2.67872   12.41620  -11.08368
       O     2.34814   11.87343  -10.32497
      H1     2.84854   11.05617  -10.36546
       H    -0.29569   10.95932  -14.84963
       O     0.49719   11.37651  -15.18231
      H1     1.19550   10.78555  -14.84060
       H     0.93573   15.50681   -9.89386
       O     0.76274   14.90892   -9.11813
      H1    -0.14608   14.58489   -9.30299
       H    -2.03995   11.22099  -13.83215
       O    -2.44920   10.86755  -14.59759
      H1    -3.38734   11.08602  -14.44092
       H    -1.79733   13.54027   -8.31598
       O    -2.07638   14.04650   -9.06860
      H1    -2.38669   13.38861   -9.68193
       H     2.09942   10.90586  -12.95823
       O     1.99121    9.97770  -13.16874
      H1     2.92562    9.70789  -13.25163
       H    -2.47078   15.82957  -11.84223
       O    -1.55756   15.49730  -11.84781
      H1    -1.58165   14.62196  -11.43364
       H    -0.55872   15.22208  -13.45248
       O    -0.19120   14.64843  -14.12845
      H1     0.38863   15.20677  -14.65826
       H    -2.33177   10.30327  -17.99039
       O    -2.55728    9.73065  -17.25936
      H1    -2.38062   10.28843  -16.50204
       H     0.08625    7.51868  -12.57807
       O     0.51800    8.07622  -11.87685
      H1     0.97782    8.77655  -12.37673
       H    -2.98898    8.17942  -13.03901
       O    -2.19914    8.18381  -13.60256
      H1    -2.21595    9.06824  -13.98151

