60
frame 1 | Written by MDAnalysis XYZWriter (release 2.4.3)
       H     6.05239   18.49886  -10.44575
       O     6.22562   17.56062  -10.44313
      H1     6.74711   17.43686  -11.25994
       H    16.57995   13.32526  -11.92367
       O    16.12725   13.78006  -11.22467
      H1    15.58667   14.40912  -11.70827
       H     6.78541   16.82484   -8.87469
       O     7.50667   16.80651   -8.20344
      H1     6.99979   16.82287   -7.36827
       H    11.27779   16.08949  -10.44658
       O    10.84155   16.97516  -10.33046
      H1    10.28126   16.80957   -9.58143
       H    11.85632   14.35789   -5.97412
       O    12.08446   15.00873   -6.68163
      H1    11.44757   14.81508   -7.41957
       H    10.74519   13.26670   -8.78452
       O    10.28706   13.91703   -8.25842
      H1     9.42229   13.98026   -8.72262
       H    15.04084   13.82944   -7.21573
       O    14.23287   13.98903   -7.73185
      H1    13.63691   14.36788   -7.07390
       H    10.47442   11.17173  -10.43716
       O     9.85443   11.77270   -9.93274
      H1     9.11435   11.17179   -9.79701
       H    15.94383   17.72628  -11.53011
       O    15.70717   18.48483  -10.98998
      H1    14.83156   18.24293  -10.69535
       H     9.42345   13.30538  -12.40457
       O     8.70268   13.44604  -11.76785
      H1     8.97426   12.83639  -11.06179
       H     8.62079   15.27806  -11.84328
       O     8.74118   16.26183  -11.79012
      H1     9.26803   16.38859  -11.02356
       H    10.70620   13.74983  -14.57612
       O    11.11041   13.72601  -13.71372
      H1    11.89936   13.18952  -13.86904
       H    15.28070   17.56020   -8.33869
       O    16.14818   17.39738   -8.69123
      H1    16.06644   17.56523   -9.64352
       H    12.71117   18.90815  -14.07493
       O    11.77332   18.99625  -13.87486
      H1    11.53486   18.06384  -13.81258
       H    11.01862   15.62492  -13.72606
       O    10.67115   16.49448  -13.80068
      H1    10.10047   16.60781  -13.01623
       H     7.46573   14.99129   -8.45514
       O     7.38670   14.03621   -8.70882
      H1     6.81333   14.03157   -9.49889
       H    10.81000   16.35694   -5.72508
       O     9.94146   16.81401   -5.63235
      H1     9.38602   16.08286   -5.32026
       H    12.86063   13.81085  -10.69565
       O    12.08942   14.35909  -10.87870
      H1    11.69485   13.94539  -11.63114
       H    13.08481   18.72023   -9.26437
       O    13.07300   18.44932  -10.20465
      H1    12.28021   17.89853  -10.22203
       H    16.00266   15.45080  -13.35060
       O    15.35824   16.11962  -13.14968
      H1    14.67933   16.01394  -13.82537

