60
frame 1 | Written by MDAnalysis XYZWriter (release 2.4.3)
       H    10.38926   -3.86630  -11.09266
       O     9.97204   -2.99156  -10.92575
      H1    10.07245   -2.87518   -9.95045
       H    12.04202   -6.85930   -1.99179
       O    11.99677   -6.02922   -2.50404
      H1    12.88013   -5.70561   -2.50925
       H    10.74660   -7.05839   -3.45644
       O     9.97456   -7.49495   -3.92395
      H1     9.74395   -8.23457   -3.34987
       H     8.05415   -7.92785   -7.64472
       O     8.77019   -7.43801   -8.04036
      H1     8.35616   -6.54219   -8.14507
       H    13.09930    1.48954   -5.83981
       O    12.42881    1.13688   -6.45262
      H1    12.76119    0.24422   -6.67814
       H     6.63027   -2.60591   -4.66853
       O     6.03959   -2.51271   -3.90570
      H1     6.35137   -1.74652   -3.38217
       H     7.53730   -4.91051   -7.64860
       O     8.25262   -4.77503   -8.26759
      H1     7.81678   -4.20760   -8.91538
       H     7.88974   -1.80171   -6.55135
       O     7.54756   -2.64653   -6.25080
      H1     8.30475   -3.20849   -6.35696
       H    10.75438   -7.82400   -5.56335
       O    11.18917   -8.09239   -6.37687
      H1    10.50483   -7.90497   -6.99084
       H     9.06183   -0.88567   -5.11387
       O     9.20220   -1.05811   -4.16149
      H1    10.12778   -1.38851   -4.13488
       H     7.18902   -5.04485   -4.64851
       O     6.60372   -5.76482   -4.75394
      H1     7.09079   -6.45277   -4.27202
       H    11.48809   -5.44139   -8.65536
       O    10.84957   -5.12382   -9.30405
      H1    10.20373   -4.66922   -8.77292
       H     8.08917    0.66621   -5.79552
       O     8.46219    0.00949   -6.40207
      H1     9.11094    0.54219   -6.87261
       H    11.78917   -2.77477   -2.70725
       O    12.01635   -2.01365   -3.26039
      H1    12.46249   -2.42035   -4.01182
       H    12.13830   -1.58654   -8.01098
       O    13.02026   -1.37903   -7.66976
      H1    13.61052   -1.86228   -8.23515
       H    13.00272   -3.97785   -5.79437
       O    13.46270   -3.24459   -5.41480
      H1    13.57491   -2.64460   -6.14799
       H     9.93197   -3.74426   -5.19737
       O    10.59598   -3.64710   -5.91711
      H1    10.92748   -4.54665   -6.12618
       H    10.14274   -1.31630   -8.21885
       O    10.39995   -2.24259   -8.30433
      H1    10.31755   -2.57687   -7.39571
       H     8.89506   -4.71647   -3.13617
       O     8.75515   -4.21221   -3.95898
      H1     8.63318   -3.31699   -3.63288
       H    13.41583   -5.83803   -7.33549
       O    12.48532   -5.60807   -7.04817
      H1    12.06790   -6.47072   -6.80308

