60
frame 0 | Written by MDAnalysis XYZWriter (release 2.4.3)
       H    -8.78853   -7.67910  -13.29988
       O    -8.21389   -7.12522  -13.79859
      H1    -7.50648   -6.96645  -13.14319
       H   -10.19382   -9.62099  -14.87216
       O   -11.11950   -9.39453  -14.83645
      H1   -11.18780   -8.61424  -15.37933
       H    -7.37583   -7.47546  -15.50469
       O    -6.82440   -7.85583  -16.20754
      H1    -6.50521   -8.70501  -15.90960
       H    -8.86302   -6.10936  -18.14909
       O    -8.44209   -6.14867  -19.04443
      H1    -8.03229   -7.01240  -18.99130
       H   -10.57874   -0.57796  -14.55998
       O   -10.77217   -0.77703  -15.48210
      H1   -11.63048   -0.38357  -15.62751
       H   -12.20973   -1.39482  -18.72963
       O   -13.07641   -1.67385  -19.02012
      H1   -13.32003   -2.39934  -18.45162
       H   -11.06453  -10.65883  -17.03563
       O   -10.20106  -10.42002  -17.42727
      H1   -10.20103  -10.71461  -18.33936
       H   -11.50722   -4.03584  -14.58797
       O   -11.99023   -3.58841  -15.29419
      H1   -11.76173   -2.63953  -15.28348
       H   -14.18836   -7.05359  -17.58680
       O   -13.59983   -7.18439  -18.30324
      H1   -12.73858   -7.37457  -17.86147
       H    -7.80469   -3.00838  -17.43837
       O    -8.09368   -2.52285  -18.17764
      H1    -7.63993   -1.65722  -18.05624
       H   -10.73285   -8.64210  -17.31443
       O   -11.24980   -7.84125  -17.13291
      H1   -10.54716   -7.15642  -17.01168
       H    -7.14241   -9.62190  -19.47547
       O    -7.14847   -8.72080  -19.06450
      H1    -6.73240   -8.85855  -18.20804
       H    -9.95003   -1.56384  -18.60913
       O   -10.46082   -0.79557  -18.35339
      H1   -10.31036   -0.69119  -17.39703
       H    -7.72538   -4.25777  -14.80686
       O    -7.66321   -4.52558  -15.72986
      H1    -6.73417   -4.48572  -15.97248
       H   -15.01331   -2.20555  -15.54470
       O   -14.44210   -2.58487  -14.84961
      H1   -13.60132   -2.81512  -15.29309
       H    -7.48583   -3.91220  -11.98445
       O    -8.04687   -3.46810  -12.68595
      H1    -8.81801   -4.04016  -12.81544
       H   -13.14126   -5.29118  -18.24768
       O   -12.84656   -4.45221  -17.80167
      H1   -12.35580   -4.78339  -17.00435
       H   -10.55818   -4.68995  -12.39426
       O   -10.36474   -4.69880  -13.35644
      H1   -10.36524   -5.66282  -13.54196
       H   -10.42156   -4.88325  -17.32060
       O    -9.86556   -5.50353  -16.85820
      H1    -9.17275   -4.98248  -16.39771
       H    -5.22353   -4.58794  -17.63920
       O    -5.17155   -4.87408  -16.72021
      H1    -4.67127   -5.70887  -16.74138

