60
frame 2 | Written by MDAnalysis XYZWriter (release 2.4.3)
       H    -8.76940   11.65345   -1.65333
       O    -9.69073   11.49025   -1.41627
      H1    -9.60712   11.00368   -0.57628
       H   -12.93531   12.26554   -6.27826
       O   -13.50759   12.67768   -5.62049
      H1   -12.96705   12.57929   -4.81929
       H   -10.70028   14.54946   -2.26617
       O   -10.94677   14.20757   -3.12630
      H1   -11.77632   14.62725   -3.34874
       H   -14.92291   11.00095   -5.36687
       O   -15.08386   10.09619   -5.70186
      H1   -15.95167   10.17761   -6.15042
       H   -16.52055    9.78784   -1.64418
       O   -16.28288   10.35372   -0.91461
      H1   -15.45915   10.78244   -1.19393
       H    -9.62352   15.54829    0.14292
       O   -10.23269   15.11651   -0.46014
      H1   -10.55788   14.35760    0.07646
       H   -13.91833   14.26546    1.11345
       O   -13.52703   14.02302    0.26660
      H1   -12.76778   13.48149    0.51376
       H   -11.73277   12.39417   -3.02911
       O   -12.36689   11.71778   -3.36805
      H1   -13.12147   11.85154   -2.77346
       H   -15.01756   12.96062   -2.12615
       O   -14.48871   12.30099   -1.60673
      H1   -14.43061   12.74172   -0.74225
       H   -16.30767    7.87840   -3.26778
       O   -16.32634    8.84207   -3.19675
      H1   -15.87096    9.06299   -4.00634
       H   -11.80390   17.02682   -0.84363
       O   -12.69859   16.76519   -0.51396
      H1   -12.70570   15.81099   -0.63286
       H   -16.32706   14.43128   -2.19107
       O   -15.57860   14.73496   -2.76365
      H1   -15.60272   15.68597   -2.62892
       H   -15.12397    7.88609    0.32316
       O   -15.64427    7.80072   -0.48605
      H1   -15.62688    8.68428   -0.82217
       H    -9.31897   11.28302   -4.77343
       O    -9.64806   10.37828   -4.62542
      H1   -10.29645   10.47864   -3.92629
       H    -9.89379   13.19732   -5.64571
       O    -9.16363   13.06476   -5.01176
      H1    -9.55653   13.41858   -4.21666
       H   -11.94445    9.57853    0.76801
       O   -12.40479   10.25176    0.20945
      H1   -13.07003   10.63324    0.82421
       H   -11.12418   12.77852    1.89553
       O   -11.13811   12.94803    0.94429
      H1   -11.54316   12.16563    0.58828
       H   -12.27460    9.79520   -2.68745
       O   -11.89703    8.99735   -2.29870
      H1   -11.78654    9.17344   -1.33571
       H    -8.46198    8.57393   -2.49476
       O    -8.92326    8.60316   -1.65054
      H1    -9.79570    8.89889   -1.92835
       H   -13.94848   15.03862   -4.26430
       O   -13.19301   15.14002   -4.81614
      H1   -13.13371   14.33693   -5.36847

