60
frame 2 | Written by MDAnalysis XYZWriter (release 2.4.3)
       H    11.96806   -9.95974   -7.16118
       O    12.18052  -10.87498   -7.33168
      H1    12.26600  -10.91691   -8.30310
       H     9.85666   -8.53467  -10.43143
       O    10.76163   -8.73683  -10.68901
      H1    10.74109   -8.91482  -11.62720
       H     3.83329   -7.04546   -6.74649
       O     4.37420   -6.95617   -7.53267
      H1     5.09324   -6.35643   -7.24797
       H     5.32006  -10.06999   -8.52471
       O     5.74443   -9.82813   -7.66768
      H1     5.26356   -9.04557   -7.42482
       H    11.35797   -7.43314   -3.39663
       O    10.52580   -7.82669   -3.75912
      H1    10.68111   -8.76783   -3.72565
       H     8.85706   -4.28315   -9.30044
       O     8.27147   -4.94484   -9.68255
      H1     7.79176   -5.20858   -8.87761
       H     7.80054   -8.11014   -3.04802
       O     8.13070   -7.63831   -2.27942
      H1     9.06327   -7.47662   -2.55464
       H     7.89997   -8.27058   -7.76823
       O     8.06950   -7.67370   -7.04998
      H1     7.73452   -8.19725   -6.30967
       H     7.59400   -8.02418  -10.14841
       O     8.15985   -8.54492   -9.55801
      H1     7.95003   -9.44866   -9.79849
       H     6.78969   -3.21837   -4.48206
       O     7.32406   -3.97840   -4.21835
      H1     8.16283   -3.84465   -4.70636
       H    10.81481   -8.18452   -5.58191
       O    11.04970   -8.39987   -6.49261
      H1    10.22171   -8.35863   -6.94834
       H     7.13335   -9.51770   -4.71719
       O     6.99615   -8.55363   -4.71574
      H1     6.06634   -8.44671   -4.49040
       H     7.20068   -4.99463   -6.09477
       O     7.01147   -5.13272   -7.03385
      H1     7.24256   -6.09544   -7.16845
       H    10.86825   -7.08831  -10.56234
       O    10.78522   -6.10713  -10.65691
      H1     9.96269   -5.88331  -10.16197
       H     8.66919  -11.26966   -4.35160
       O     7.78857  -11.20419   -4.75365
      H1     7.86902  -11.77916   -5.52285
       H     5.13186  -12.47171   -5.55287
       O     4.71721  -11.75981   -6.03411
      H1     5.48722  -11.26117   -6.38004
       H     3.68133   -6.32152   -4.40157
       O     4.54578   -6.11240   -4.78799
      H1     5.11791   -6.12284   -4.00874
       H    11.21371   -5.13786   -5.69861
       O    11.60098   -4.91840   -6.53233
      H1    12.43471   -5.37263   -6.50424
       H    10.53153   -2.90880   -8.02808
       O    10.59051   -3.73817   -8.55406
      H1    10.78045   -4.42487   -7.87891
       H    13.43471   -7.39847   -5.59061
       O    13.33647   -6.97408   -6.44416
      H1    12.55558   -7.40647   -6.81613

