60
frame 1 | Written by MDAnalysis XYZWriter (release 2.4.3)
       H     2.55154  -13.82314  -15.65533
       O     2.11341  -14.58001  -16.07728
      H1     2.04694  -14.37490  -17.02099
       H    -1.31009  -14.68786  -16.83995
       O    -1.46309  -15.61366  -17.10207
      H1    -0.86568  -15.73968  -17.85057
       H    -3.96383  -15.24313   -9.31208
       O    -4.13176  -16.00436   -9.87391
      H1    -3.24902  -16.24720  -10.12678
       H     1.27245  -15.77005  -15.07293
       O     0.96345  -16.33254  -14.33975
      H1     0.21819  -16.83681  -14.73275
       H    -2.04420  -10.86336  -13.88975
       O    -2.40404  -10.98524  -14.77468
      H1    -1.81653  -11.66392  -15.13969
       H    -0.37331  -14.92676  -13.94786
       O    -1.03049  -14.25454  -13.66815
      H1    -0.80890  -14.07076  -12.73110
       H    -1.05803  -16.63703   -9.82926
       O    -1.60932  -16.58472  -10.60847
      H1    -1.73724  -17.50645  -10.86066
       H     2.01866  -11.64012  -11.61302
       O     1.71343  -12.42244  -12.06282
      H1     0.86897  -12.60546  -11.63562
       H     0.01517  -13.25153   -8.21878
       O     0.78165  -12.80108   -8.51813
      H1     0.44389  -11.96434   -8.93104
       H    -2.51316  -15.52160  -13.46770
       O    -3.46724  -15.62308  -13.66501
      H1    -3.64824  -16.51343  -13.47423
       H    -1.15584  -10.66540  -11.23953
       O    -1.59746  -10.27183  -12.02603
      H1    -2.48932  -10.60512  -11.97618
       H    -0.12264  -12.79950  -16.35806
       O    -0.99929  -13.03746  -16.05381
      H1    -0.86671  -13.38471  -15.19664
       H     1.88523  -15.63793  -12.71558
       O     2.17735  -15.15848  -11.93056
      H1     2.05720  -14.21106  -12.16550
       H    -0.49177  -14.27891  -10.45806
       O    -0.78101  -13.46216  -10.82317
      H1    -1.71127  -13.46586  -10.81139
       H     1.87558  -14.21761   -9.09457
       O     2.50290  -14.92648   -9.22787
      H1     2.32019  -15.25357  -10.12343
       H    -3.83848  -13.65873  -13.81154
       O    -4.49970  -12.96965  -13.82937
      H1    -4.08217  -12.13688  -14.13379
       H     2.46791  -10.21776  -14.38590
       O     1.57502  -10.53776  -14.19155
      H1     1.72739  -11.21675  -13.47485
       H    -3.73403  -14.50495  -11.20142
       O    -3.55413  -13.56440  -11.21738
      H1    -3.81483  -13.38013  -12.13041
       H     1.21785  -11.46818  -15.69682
       O     1.31980  -11.83740  -16.58792
      H1     0.93232  -11.15888  -17.15936
       H    -1.47501  -14.68169   -8.12987
       O    -0.63822  -15.14680   -8.31815
      H1    -0.40716  -15.61360   -7.51539

