60
frame 1 | Written by MDAnalysis XYZWriter (release 2.4.3)
       H   -18.93775    3.37660   -5.20566
       O   -18.51540    4.28194   -5.23638
      H1   -17.67664    4.09956   -5.66786
       H   -18.86805    7.02111   -4.15302
       O   -18.24978    7.52124   -4.67108
      H1   -18.80940    8.12115   -5.17457
       H   -18.03905   11.94370   -4.65015
       O   -18.52437   11.91951   -3.81469
      H1   -19.10741   12.71739   -3.87029
       H   -14.63587   11.14588   -5.00149
       O   -15.11979   10.44332   -5.45646
      H1   -15.89191   10.86840   -5.87084
       H   -15.68287    6.55969   -5.77521
       O   -16.36374    6.40835   -6.43519
      H1   -17.09572    6.72135   -5.91759
       H   -12.45618    6.62876   -7.18759
       O   -13.39275    6.52530   -6.99495
      H1   -13.33144    6.24944   -6.07889
       H   -16.64742   13.07437   -5.71718
       O   -17.13061   12.35669   -6.14882
      H1   -17.34157   12.61717   -7.05095
       H   -15.92132    9.24756  -11.31038
       O   -15.44918    9.71502  -12.00232
      H1   -14.59823    9.97408  -11.65294
       H   -14.01577    9.81601   -6.83033
       O   -13.24477    9.76423   -7.40211
      H1   -12.50887    9.40844   -6.84402
       H   -15.58204    6.39162  -12.34744
       O   -16.15262    6.93761  -12.89433
      H1   -16.06405    7.79666  -12.46900
       H   -17.11691    8.51881   -4.07300
       O   -16.59469    9.25527   -3.70165
      H1   -16.00928    9.50695   -4.40583
       H   -17.97977    5.30623  -10.48270
       O   -17.68132    5.72681   -9.67549
      H1   -17.69637    4.99324   -9.02930
       H   -18.03700   11.67321  -12.40262
       O   -17.15043   11.87573  -12.08406
      H1   -16.73197   11.03069  -12.12664
       H   -14.48460    6.63425   -9.92706
       O   -14.29226    7.57217   -9.73703
      H1   -14.17061    7.60684   -8.76210
       H   -13.96436   13.76359   -9.59391
       O   -14.45234   13.35732   -8.83874
      H1   -14.59869   12.41878   -9.04017
       H   -16.61461    8.13670   -7.30833
       O   -17.24119    8.84742   -7.52821
      H1   -17.59682    8.52877   -8.35687
       H   -12.97072   10.51988   -9.01424
       O   -13.17983   10.72283   -9.90022
      H1   -12.47799   11.36536  -10.15401
       H   -12.80680   11.43698   -7.00172
       O   -12.38387   12.29023   -7.13338
      H1   -13.05967   12.77202   -7.64848
       H   -17.36412   11.55815   -9.88520
       O   -17.48674   11.57472   -8.94243
      H1   -17.31730   10.67444   -8.68750
       H   -18.00393    8.25428  -10.51115
       O   -17.06926    8.31878  -10.36530
      H1   -16.76002    7.43303  -10.15546

