60
frame 1 | Written by MDAnalysis XYZWriter (release 2.4.3)
       H    -8.59546  -11.80625  -16.66395
       O    -7.78217  -11.43026  -17.01315
      H1    -7.09311  -12.04220  -16.75139
       H    -9.25185  -14.73391  -15.94346
       O    -9.58867  -14.53496  -15.06423
      H1   -10.04474  -15.35715  -14.78102
       H    -8.96598  -18.79408  -16.65737
       O    -8.34787  -18.18107  -17.09800
      H1    -7.95849  -18.72697  -17.78300
       H    -1.31009  -14.68786  -16.83995
       O    -1.46309  -15.61366  -17.10207
      H1    -0.86568  -15.73968  -17.85057
       H   -10.38104  -17.33030  -18.77045
       O   -10.88319  -16.63744  -18.33680
      H1   -10.15889  -16.11724  -17.92674
       H    -3.93811  -17.41599  -17.25071
       O    -3.76893  -18.28112  -17.65542
      H1    -2.93710  -18.21913  -18.13659
       H    -8.19664  -15.43613  -18.25633
       O    -8.57026  -15.54207  -17.37217
      H1    -8.43677  -16.50155  -17.24721
       H    -7.01675  -13.50603  -19.26260
       O    -7.11452  -12.56625  -19.39036
      H1    -7.48536  -12.24520  -18.56254
       H    -6.54667  -11.29160  -12.68868
       O    -7.24320  -11.68709  -13.23941
      H1    -7.21324  -12.63174  -13.06503
       H    -7.89663   -9.65437  -17.40338
       O    -8.17441   -8.74330  -17.64434
      H1    -7.50886   -8.20360  -17.19811
       H    -4.51080   -9.96474  -16.82023
       O    -5.36425   -9.86361  -16.42122
      H1    -6.00016   -9.91524  -17.13811
       H    -3.83848  -13.65873  -13.81154
       O    -4.49970  -12.96965  -13.82937
      H1    -4.08217  -12.13688  -14.13379
       H    -8.00277  -18.03457  -14.57590
       O    -7.13106  -17.62539  -14.62903
      H1    -6.85463  -17.79517  -15.51233
       H    -3.88105  -14.76050  -19.31023
       O    -3.77645  -14.48221  -18.40109
      H1    -3.16088  -15.13332  -18.01211
       H    -8.18583  -14.72001  -13.83047
       O    -7.82024  -14.70278  -12.95708
      H1    -7.27226  -15.50117  -12.93074
       H    -4.90692  -16.25861  -15.39511
       O    -5.06644  -16.43869  -16.33130
      H1    -5.08195  -15.56891  -16.69824
       H    -2.92672  -13.07401  -18.46043
       O    -2.42071  -12.27695  -18.45764
      H1    -1.92739  -12.38937  -17.60902
       H    -5.19784  -13.41192  -17.05338
       O    -5.82843  -13.55774  -16.35939
      H1    -5.40060  -13.25305  -15.56255
       H   -11.72528  -10.99030  -16.26610
       O   -12.09378  -11.11670  -17.16956
      H1   -12.80768  -11.74994  -17.07907
       H    -8.85664  -11.54988  -14.54469
       O    -9.63829  -11.70950  -15.07490
      H1    -9.78440  -12.65636  -14.90649

