60
frame 1 | Written by MDAnalysis XYZWriter (release 2.4.3)
       H    15.23888   12.31522    7.72110
       O    15.13035   12.26011    6.77047
      H1    15.47156   11.40692    6.51996
       H    14.78020   13.83939    9.27803
       O    14.38870   12.96886    9.36984
      H1    13.46473   13.15053    9.16668
       H    17.98528   13.68550    4.44405
       O    17.22213   13.15482    4.10555
      H1    16.82469   12.74602    4.88819
       H    19.13907   14.39223   11.00838
       O    18.19407   14.50642   11.09414
      H1    17.93532   14.57865   10.17444
       H    13.43226   17.78783    1.80197
       O    13.06127   18.53088    2.27613
      H1    13.62424   18.72351    3.04918
       H    11.37409   18.28820    9.02531
       O    11.00956   17.42055    8.80390
      H1    11.70813   16.95474    8.26728
       H    14.32258   16.65375    8.59562
       O    14.71475   16.88111    9.46377
      H1    14.01777   16.80466   10.13457
       H    17.19513   17.86920    2.63932
       O    16.25367   18.04027    2.48066
      H1    15.77521   17.26080    2.75433
       H    16.33022   16.05349    4.89947
       O    16.81668   16.87196    5.04339
      H1    16.10961   17.42510    5.37039
       H    18.22676   18.52604    9.26836
       O    18.94093   18.46201    8.58211
      H1    18.79828   19.21385    7.96784
       H    18.65178   16.99606    7.62055
       O    18.57265   16.20689    7.06134
      H1    17.90029   16.38634    6.36395
       H    15.81149   18.95419   -0.76981
       O    16.49136   18.38279   -0.39613
      H1    16.18329   18.27544    0.51901
       H    12.78954   16.61088    6.54292
       O    13.00003   16.04619    7.31556
      H1    12.76274   15.19481    6.94544
       H    13.10912   18.57482    5.03933
       O    12.63418   17.75046    5.23350
      H1    11.73087   18.09987    5.17174
       H    11.86826   15.08984    3.52825
       O    12.49702   14.36296    3.56396
      H1    12.06679   13.65133    3.97628
       H    18.57778   16.64758   11.03574
       O    17.99691   17.43067   10.99779
      H1    17.30399   17.19273   11.60368
       H    11.97772   12.62391    7.00424
       O    12.41748   13.36412    6.53939
      H1    13.34856   13.10831    6.42475
       H    15.51507   14.45691    3.42787
       O    14.97985   15.24586    3.28342
      H1    14.13523   15.00153    3.64764
       H    17.11327   15.15301    8.18093
       O    16.54346   15.07551    8.97531
      H1    16.36864   15.99118    9.28234
       H    13.62504   15.26316    1.49932
       O    13.60178   16.00741    0.87896
      H1    14.35090   15.86225    0.26709

