60
frame 1 | Written by MDAnalysis XYZWriter (release 2.4.3)
       H    12.89310    3.59234   -6.04233
       O    12.17900    4.09316   -6.41903
      H1    11.58735    4.28602   -5.64017
       H    10.38926   -3.86630  -11.09266
       O     9.97204   -2.99156  -10.92575
      H1    10.07245   -2.87518   -9.95045
       H     6.52008    2.22448  -10.61834
       O     7.44944    2.27576  -10.39488
      H1     7.63900    1.40311  -10.03816
       H     9.87618    2.48172   -4.71033
       O     9.95002    2.55932   -5.65669
      H1    10.78986    2.16602   -5.86010
       H     8.86974    4.09517   -9.71428
       O     8.59323    4.93967  -10.07967
      H1     9.05416    5.61883   -9.58518
       H     8.58197   -1.83484  -11.69848
       O     8.37578   -1.10869  -12.29976
      H1     7.42183   -0.99755  -12.19217
       H    13.09930    1.48954   -5.83981
       O    12.42881    1.13688   -6.45262
      H1    12.76119    0.24422   -6.67814
       H     7.88974   -1.80171   -6.55135
       O     7.54756   -2.64653   -6.25080
      H1     8.30475   -3.20849   -6.35696
       H     9.06183   -0.88567   -5.11387
       O     9.20220   -1.05811   -4.16149
      H1    10.12778   -1.38851   -4.13488
       H     8.08917    0.66621   -5.79552
       O     8.46219    0.00949   -6.40207
      H1     9.11094    0.54219   -6.87261
       H    12.13830   -1.58654   -8.01098
       O    13.02026   -1.37903   -7.66976
      H1    13.61052   -1.86228   -8.23515
       H    11.45805   -2.02298  -10.99327
       O    12.17282   -1.51435  -11.34494
      H1    12.32279   -0.77399  -10.72603
       H    11.72870    3.64403   -9.75415
       O    11.73283    3.06585   -8.95820
      H1    11.97151    3.66620   -8.23084
       H     9.36877    0.16119  -11.67082
       O    10.12543    0.68266  -11.35809
      H1    10.83722    0.08130  -11.52970
       H    12.18258    1.08394   -9.44622
       O    12.93660    0.48489   -9.61899
      H1    13.06394    0.00741   -8.76162
       H    10.14274   -1.31630   -8.21885
       O    10.39995   -2.24259   -8.30433
      H1    10.31755   -2.57687   -7.39571
       H     7.60493    4.02651   -5.08213
       O     7.84342    4.16471   -6.03369
      H1     8.76283    3.80867   -6.08869
       H     7.21014    0.03732   -8.41012
       O     7.37946   -0.34687   -9.26445
      H1     7.20659   -1.28092   -9.10170
       H    15.34122    2.78834   -7.65631
       O    14.92013    3.45318   -8.24008
      H1    14.05980    3.07542   -8.36404
       H    10.03617    0.83317   -9.43031
       O    10.27770    0.67519   -8.52349
      H1    10.85806    1.41428   -8.29309

