60
frame 2 | Written by MDAnalysis XYZWriter (release 2.4.3)
       H     6.85873    5.25627   18.02725
       O     6.44742    5.04105   18.86234
      H1     6.08673    5.89505   19.10098
       H     9.64272   10.86292   18.61579
       O    10.48960   11.35783   18.57182
      H1    11.11593   10.60773   18.53857
       H    13.43704    8.81164   14.87983
       O    13.37121    9.76723   15.05332
      H1    13.63733   10.13956   14.20488
       H    13.10554    9.12364   18.62247
       O    12.29202    9.51464   18.20384
      H1    11.96895    8.85922   17.58252
       H     8.14629    9.15000   18.59560
       O     8.00079   10.02909   18.23217
      H1     8.23374    9.98060   17.31184
       H     9.01375    9.85315   15.12197
       O     8.77199    9.08365   15.65134
      H1     9.62593    8.67645   15.84798
       H     9.50107    8.29048   12.92137
       O     9.86968    7.39517   13.02810
      H1     9.13841    6.81069   12.77583
       H    10.30951    5.61035   18.11997
       O    10.79024    5.97594   18.90049
      H1    11.54928    5.41450   18.98501
       H     6.64017    7.91007   13.53631
       O     6.40371    8.45512   14.30227
      H1     7.26204    8.64483   14.73293
       H    11.58141    7.14364   12.68324
       O    12.55113    7.14041   12.73717
      H1    12.71242    6.24571   12.39392
       H    13.16235    6.14312   14.81353
       O    12.71073    5.89172   15.60177
      H1    13.40244    5.86765   16.29090
       H     6.74968    4.60883   13.68272
       O     6.56626    4.66459   14.62469
      H1     7.21627    5.28174   14.92107
       H    14.19536    5.09256   17.75513
       O    14.47769    6.00070   17.71258
      H1    15.40780    5.95279   17.59659
       H    14.66054    9.95328   16.46410
       O    15.33920   10.13911   17.11810
      H1    16.12981   10.34021   16.61606
       H    11.74900   10.29438   15.10390
       O    10.90756   10.79111   15.12755
      H1    11.02060   11.41040   15.86667
       H     7.27728    6.77789   16.34825
       O     7.97285    6.11097   16.34119
      H1     8.68197    6.48570   15.85751
       H    10.55830    4.68304   13.53810
       O    10.95722    4.03556   14.13428
      H1    10.62035    4.30536   15.01777
       H    11.19228    4.11163   17.08634
       O    10.28301    4.21826   16.82119
      H1     9.88292    3.35632   17.08617
       H    11.47323    7.13328   16.12211
       O    10.90230    7.62396   16.72292
      H1    10.91288    7.07574   17.53964
       H    13.44598    3.20331   16.66995
       O    13.05501    3.63656   17.44614
      H1    13.02421    2.90063   18.06917

