60
frame 1 | Written by MDAnalysis XYZWriter (release 2.4.3)
       H     4.05645    1.25122    4.46335
       O     4.74112    0.92775    5.06127
      H1     4.89267    1.66011    5.66857
       H     5.65808   -1.59912   11.63800
       O     6.51092   -1.80441   11.26657
      H1     7.03180   -0.98863   11.46458
       H     6.16234   -0.57275    5.17249
       O     6.74668   -0.95170    5.82316
      H1     6.76042   -1.87063    5.54250
       H     6.49519   -3.51645   11.45618
       O     6.64880   -4.39134   11.89368
      H1     6.28671   -5.03336   11.29369
       H     3.59003   -2.01541   11.17612
       O     3.84103   -1.09226   11.25227
      H1     3.06181   -0.67819   11.64561
       H     2.41299   -4.67157    8.75399
       O     3.07574   -4.02416    8.97207
      H1     3.92270   -4.47506    8.73577
       H     8.47469    0.06389    9.92891
       O     8.10336    0.79779    9.43950
      H1     7.13208    0.62885    9.48956
       H     2.64454   -1.10721    7.62903
       O     2.73370   -1.96605    7.18063
      H1     2.61899   -2.63526    7.87507
       H     2.22793    0.73440    9.83218
       O     1.89492    0.05101    9.25020
      H1     0.97788   -0.08366    9.53104
       H     8.76521   -4.17858    8.40888
       O     8.58733   -3.31042    8.01437
      H1     7.66917   -3.11039    8.22797
       H     7.75819   -3.94915    5.72992
       O     6.88713   -3.76832    5.32783
      H1     7.06511   -3.51403    4.43223
       H     2.98675   -1.59925    5.49661
       O     3.15415   -1.35113    4.60211
      H1     3.88689   -0.71250    4.65602
       H     5.73800   -5.28625    7.44365
       O     5.63658   -4.80902    8.28056
      H1     5.75365   -3.89383    7.99818
       H     5.47642    1.46410   10.12146
       O     5.29558    0.73284    9.49835
      H1     4.64129    0.16823   10.00061
       H     4.96160   -4.02909    5.24873
       O     4.03063   -4.18950    5.37027
      H1     3.83680   -3.59719    6.11507
       H     8.67927   -0.59599    6.22976
       O     9.37106   -0.01233    6.62533
      H1     8.90434    0.32795    7.40753
       H     5.91914   -1.82524    9.39438
       O     5.77001   -2.05806    8.47632
      H1     5.74196   -1.20588    8.02005
       H     9.90280   -1.77386   10.39802
       O    10.08729   -1.43804    9.50598
      H1     9.70568   -2.15400    8.96153
       H     1.97651    0.90591    7.75310
       O     1.93897    1.38504    6.90345
      H1     1.13923    1.04436    6.52116
       H     6.50246    3.72972    5.37957
       O     5.79538    3.42520    5.98212
      H1     6.24300    2.88558    6.65179

