60
frame 3 | Written by MDAnalysis XYZWriter (release 2.4.3)
       H     2.89133    2.23873  -10.13532
       O     3.86087    2.22435  -10.30966
      H1     4.29320    2.46532   -9.51942
       H    -0.78229    4.48362   -8.95504
       O    -1.29660    5.06197   -8.34517
      H1    -1.35870    5.79081   -8.98295
       H     0.19667    1.89968   -8.39048
       O     0.89164    2.26307   -8.92830
      H1     0.76274    2.39003   -9.84605
       H    -0.81590    4.85220  -13.70453
       O    -1.30341    4.03255  -13.86032
      H1    -1.62014    3.73924  -13.00687
       H    -3.31400    7.07778  -10.34598
       O    -3.43077    6.36226  -10.97856
      H1    -3.33724    6.75607  -11.86244
       H     0.47666    8.36141   -9.18648
       O    -0.15220    7.83054   -9.67853
      H1     0.25567    6.95791   -9.93501
       H     1.41739    2.87430  -14.96328
       O     2.06614    2.70470  -14.22131
      H1     1.49140    2.56484  -13.45337
       H     3.92931    8.71946  -11.38489
       O     4.59328    8.25010  -10.89049
      H1     5.28616    8.95991  -10.87026
       H     0.39476    2.31751  -12.30337
       O     0.87650    2.72456  -11.59054
      H1     0.66590    3.63404  -11.48161
       H    -0.26321    6.21172   -7.00957
       O     0.49655    6.78396   -6.79199
      H1     0.58510    6.80610   -5.82011
       H     1.69704    5.56809  -10.12394
       O     0.96426    5.53777  -10.77063
      H1     1.25463    6.01745  -11.56847
       H     4.04010    4.80649  -12.79140
       O     4.62826    4.44728  -12.12680
      H1     4.12541    3.68809  -11.81455
       H     0.47713    7.30325  -13.44272
       O     0.38902    6.32173  -13.53966
      H1     1.28698    6.05479  -13.91550
       H     3.06862    8.87055  -14.59365
       O     2.19794    8.70062  -14.31246
      H1     2.09678    8.70053  -13.37506
       H    -1.97550    8.32833   -9.63083
       O    -2.90705    8.59618   -9.47362
      H1    -2.91901    9.45499   -9.90230
       H    -2.63105    3.09304  -10.91442
       O    -2.05846    3.82374  -11.04669
      H1    -2.77448    4.57248  -10.98663
       H     4.35485    7.90274   -9.27328
       O     4.27208    7.58315   -8.36009
      H1     3.87497    6.66852   -8.38575
       H     1.91541    9.61887  -11.80173
       O     1.68295    8.65936  -11.58301
      H1     0.93975    8.73423  -11.00741
       H     3.27888    4.48638   -7.74196
       O     2.85871    5.28154   -8.11320
      H1     1.91483    5.31993   -7.86479
       H     3.01870    4.59584  -14.51102
       O     3.05175    5.50182  -14.16662
      H1     3.66469    5.96118  -14.73786

