60
frame 2 | Written by MDAnalysis XYZWriter (release 2.4.3)
       H    13.27335   -7.90424    7.84506
       O    12.94166   -7.40156    8.57352
      H1    13.06142   -7.98083    9.30561
       H    13.33929  -15.77760   11.15474
       O    13.79747  -16.62363   10.98409
      H1    14.69904  -16.52901   11.32048
       H    10.75148   -9.87719   13.05364
       O    10.41941  -10.79102   12.99961
      H1     9.45926  -10.66144   12.89203
       H     9.23395  -14.77716   12.13633
       O     9.97132  -15.19303   11.63051
      H1    10.13331  -16.03848   12.12121
       H    10.83821  -13.98486    7.45481
       O    11.67015  -14.47946    7.62918
      H1    12.08777  -14.00504    8.38080
       H    15.80866  -12.90275    9.35674
       O    15.91294  -13.78671    9.73117
      H1    15.69424  -14.29764    8.94150
       H    11.02783   -8.47555   10.15262
       O    11.06298   -8.46516   11.13216
      H1    10.49446   -7.66897   11.32967
       H    11.20273  -11.10326   11.47579
       O    11.86254  -11.40770   10.81556
      H1    11.62222  -10.81467   10.08667
       H     7.32850  -11.62120   12.38430
       O     7.71802  -10.77495   12.71696
      H1     7.01384  -10.41642   13.28577
       H     8.27006  -10.87749    8.59488
       O     7.91145  -11.71493    8.88632
      H1     7.09861  -11.83509    8.38727
       H    15.38209   -8.82589   14.81048
       O    14.51573   -9.09150   15.11637
      H1    14.02041   -9.37832   14.34006
       H     8.81138  -13.40582    6.44424
       O     9.19071  -13.52699    7.33280
      H1     8.83337  -12.83680    7.89143
       H    17.14476  -10.48120   12.11865
       O    16.74502  -11.32503   12.34873
      H1    15.84464  -11.12617   12.66616
       H    13.20015  -13.38455   15.26729
       O    13.85625  -13.44945   14.57724
      H1    13.41982  -14.05381   13.95656
       H    12.79313   -7.43453   12.16408
       O    13.12403   -6.63749   12.64617
      H1    13.10931   -5.96465   11.95897
       H    10.47485  -11.14842   14.73332
       O    10.44647  -11.26574   15.70168
      H1    10.05672  -12.14480   15.76888
       H    12.60516  -10.17410    7.78723
       O    11.73205  -10.12080    8.17102
      H1    11.35944   -9.39324    7.67343
       H    12.67672  -12.79658    9.98093
       O    12.97333  -13.70897    9.82166
      H1    13.94131  -13.61930    9.94135
       H    13.93449  -11.47352   13.55201
       O    14.10953  -10.76354   12.91955
      H1    13.49646  -10.99035   12.22164
       H    11.99196  -15.47076   12.33990
       O    12.63818  -14.77861   12.46816
      H1    12.47056  -14.19723   11.70812

