60
frame 1 | Written by MDAnalysis XYZWriter (release 2.4.3)
       H    17.48234    8.04727    8.07464
       O    18.23096    8.55527    7.79023
      H1    18.52265    8.11770    6.96163
       H    12.22069    3.35977    4.98774
       O    11.45058    3.94402    4.87130
      H1    11.66364    4.73707    5.36720
       H    14.31053    1.30206    3.42600
       O    14.80999    0.76844    2.81903
      H1    14.21603    0.05853    2.51249
       H    14.44766    5.58570    7.51460
       O    13.84125    6.02654    8.11850
      H1    13.44094    5.31677    8.65719
       H    15.97968    1.90731    7.16543
       O    16.77903    2.37443    6.92048
      H1    17.04399    2.91945    7.65817
       H    17.77850    4.79073    9.13664
       O    16.90798    4.57591    8.84895
      H1    16.48823    4.17727    9.63215
       H    13.04278    7.89228    2.52997
       O    12.54350    7.12041    2.67968
      H1    12.25457    7.18136    3.62100
       H    16.17474    6.54455    9.21374
       O    16.20682    7.53358    9.14900
      H1    15.83174    7.82252    9.99085
       H    18.13859    5.85188    2.77504
       O    19.07023    5.83593    2.53787
      H1    19.29802    4.89230    2.66522
       H    14.58870    9.75101    9.10140
       O    13.95893    9.26854    8.55338
      H1    14.38625    8.42939    8.34935
       H    19.51874    0.97600    5.91604
       O    19.09106    1.83758    5.99063
      H1    18.19970    1.60008    6.28629
       H    13.99561    6.28344    2.10913
       O    14.60464    5.53473    2.08356
      H1    14.93236    5.62997    1.17028
       H    11.98209    7.77420    5.36488
       O    11.68640    6.88014    5.35288
      H1    10.72096    6.95380    5.26131
       H    18.13547    2.99582    1.12633
       O    17.87133    3.29590    1.98681
      H1    16.89853    3.34308    1.88477
       H    13.43294    3.23094    9.20272
       O    13.20577    3.97914    9.78970
      H1    12.44458    3.64382   10.29857
       H    16.09079    4.06153    6.40840
       O    15.45477    4.76004    6.24838
      H1    15.91146    5.27504    5.59854
       H    15.79384    6.09604    3.44018
       O    16.57096    6.53053    3.83993
      H1    16.33042    7.43998    3.96486
       H    16.58276    9.03767    7.24047
       O    15.91654    9.54873    6.72891
      H1    15.09615    9.37942    7.21488
       H    14.35723    3.37950    5.26958
       O    13.79639    2.68831    4.82932
      H1    13.90993    1.96069    5.43496
       H    16.02057    9.69630    4.87632
       O    16.31811    9.35829    4.03335
      H1    17.18639    9.76916    3.96628

