60
frame 1 | Written by MDAnalysis XYZWriter (release 2.4.3)
       H    16.31288    0.05055   -3.96781
       O    15.62604    0.70683   -4.11109
      H1    14.89894    0.37166   -3.51822
       H    14.73833   -3.64070   -2.97124
       O    15.17864   -3.17471   -2.24116
      H1    14.63872   -3.46545   -1.50191
       H    12.04202   -6.85930   -1.99179
       O    11.99677   -6.02922   -2.50404
      H1    12.88013   -5.70561   -2.50925
       H    12.72038   -1.52435    2.65289
       O    13.31828   -1.71500    1.87852
      H1    12.75400   -1.56131    1.13522
       H    14.73302   -0.07571   -1.57669
       O    15.63447    0.01781   -1.35834
      H1    15.63946    0.78533   -0.74659
       H    12.80259   -0.42225   -2.82316
       O    13.14307    0.32573   -2.33664
      H1    12.58171    1.08472   -2.58656
       H    13.09930    1.48954   -5.83981
       O    12.42881    1.13688   -6.45262
      H1    12.76119    0.24422   -6.67814
       H    15.80937   -0.31210   -6.24175
       O    15.68128   -1.25265   -6.34950
      H1    15.63293   -1.58689   -5.45969
       H     9.06183   -0.88567   -5.11387
       O     9.20220   -1.05811   -4.16149
      H1    10.12778   -1.38851   -4.13488
       H    11.78917   -2.77477   -2.70725
       O    12.01635   -2.01365   -3.26039
      H1    12.46249   -2.42035   -4.01182
       H     9.71988   -0.84315   -1.00773
       O     8.86762   -0.45982   -1.16085
      H1     8.82127    0.35463   -0.62594
       H    13.00272   -3.97785   -5.79437
       O    13.46270   -3.24459   -5.41480
      H1    13.57491   -2.64460   -6.14799
       H     9.93197   -3.74426   -5.19737
       O    10.59598   -3.64710   -5.91711
      H1    10.92748   -4.54665   -6.12618
       H    16.46297   -2.25351   -3.14545
       O    16.87865   -1.74929   -3.86226
      H1    17.81620   -1.76480   -3.58200
       H    10.14274   -1.31630   -8.21885
       O    10.39995   -2.24259   -8.30433
      H1    10.31755   -2.57687   -7.39571
       H     8.89506   -4.71647   -3.13617
       O     8.75515   -4.21221   -3.95898
      H1     8.63318   -3.31699   -3.63288
       H    10.59864   -3.96988    0.46826
       O    10.41495   -4.40319    1.32283
      H1    10.00795   -3.69286    1.81881
       H    11.54603   -4.62779   -1.52611
       O    11.48318   -3.76029   -1.11398
      H1    12.24285   -3.72705   -0.52541
       H    10.01540    1.65887   -1.98814
       O     9.83326    1.47586   -2.91589
      H1     9.64526    0.53108   -2.90579
       H    11.53391    0.02086    0.33288
       O    11.53124   -0.86690   -0.07187
      H1    12.11196   -0.80606   -0.85579

