60
frame 2 | Written by MDAnalysis XYZWriter (release 2.4.3)
       H    13.15123  -16.95322   17.32123
       O    12.50505  -16.45926   17.80555
      H1    13.00091  -16.12543   18.56066
       H    17.64083  -12.88669   18.13622
       O    16.88630  -13.48392   18.31570
      H1    16.11049  -12.89273   18.35635
       H    19.12025  -19.06081   14.76163
       O    18.80870  -18.58313   13.99431
      H1    18.36324  -19.30139   13.49904
       H    19.23406  -15.61050   16.89892
       O    18.99821  -15.79267   17.83081
      H1    18.04220  -15.95319   17.77577
       H    17.80411  -13.02591   15.07718
       O    18.21016  -12.21854   14.70904
      H1    17.71167  -12.01002   13.90588
       H    15.00783  -16.69396   16.09012
       O    14.37594  -17.33835   15.76308
      H1    13.91053  -16.93357   14.99044
       H    16.21460  -14.91668   17.50477
       O    16.02543  -15.87526   17.41607
      H1    15.73838  -16.15279   18.28913
       H    13.20015  -13.38455   15.26729
       O    13.85625  -13.44945   14.57724
      H1    13.41982  -14.05381   13.95656
       H    16.75762  -14.08390   11.17177
       O    17.23394  -14.09455   12.01569
      H1    17.38610  -13.15604   12.14607
       H    16.43210  -14.28302   13.65108
       O    16.30507  -14.48080   14.60011
      H1    15.44288  -14.03536   14.76599
       H    11.76741  -13.54032   17.69643
       O    12.67234  -13.69002   17.40284
      H1    12.81613  -14.64898   17.44022
       H     9.61255  -14.53567   18.66174
       O    10.24161  -13.85467   18.46289
      H1    10.74880  -13.79618   19.27296
       H    12.11968  -10.66815   16.32568
       O    12.85173  -10.61059   16.94594
      H1    13.48772  -10.02806   16.51917
       H    15.98129  -17.50854   12.41738
       O    16.41295  -16.87205   11.83147
      H1    16.47430  -16.09887   12.36269
       H    18.67826  -16.64096   14.67816
       O    18.71370  -15.78527   15.09432
      H1    17.92535  -15.30672   14.79493
       H    14.53684  -11.40641   18.36873
       O    14.46044  -12.18092   18.90322
      H1    13.88642  -12.74771   18.35411
       H    10.64266  -15.04640   15.17674
       O    11.20749  -15.80792   15.40914
      H1    11.80754  -15.44233   16.10090
       H    13.93449  -11.47352   13.55201
       O    14.10953  -10.76354   12.91955
      H1    13.49646  -10.99035   12.22164
       H    11.99196  -15.47076   12.33990
       O    12.63818  -14.77861   12.46816
      H1    12.47056  -14.19723   11.70812
       H    15.93578  -11.75470   16.49769
       O    15.98911  -10.91540   16.95667
      H1    15.58257  -10.31525   16.31434

