60
frame 2 | Written by MDAnalysis XYZWriter (release 2.4.3)
       H     4.91821    1.68265    3.93458
       O     5.46846    0.92878    4.27805
      H1     5.90469    0.70409    3.44508
       H     8.50458   -0.85387    4.75103
       O     9.21595   -0.91405    4.10676
      H1     9.91394   -1.35853    4.62890
       H     8.78353    3.62713    0.04441
       O     8.44973    2.77025    0.33901
      H1     9.26516    2.29377    0.54315
       H     5.63936    1.06238   -4.14993
       O     6.20459    0.33874   -3.80618
      H1     6.59280    0.77830   -3.04240
       H     8.04471   -4.78486    2.64564
       O     7.51198   -4.36474    1.93392
      H1     8.12945   -4.30739    1.20183
       H     6.25051   -3.03587    1.92928
       O     5.52279   -2.46737    2.25692
      H1     4.96098   -2.37877    1.47581
       H    10.68757    1.94112    4.54018
       O    11.09735    1.17782    4.04860
      H1    10.49206    0.47041    4.25336
       H     6.30254    2.55061    1.48008
       O     5.60460    2.95746    0.96097
      H1     4.84377    2.97488    1.54205
       H     8.46274   -0.37346   -3.56139
       O     8.96646   -0.54436   -2.77854
      H1     9.87953   -0.66720   -3.10566
       H     8.86383   -0.43069   -0.45491
       O     8.62358   -0.87632    0.35483
      H1     8.03277   -0.27420    0.81846
       H     4.93761    2.51230   -0.68219
       O     4.62336    1.88945   -1.36156
      H1     3.74120    1.67415   -1.02669
       H     8.76069   -3.57828   -0.63185
       O     9.51127   -3.76418   -0.03483
      H1    10.04245   -2.96871    0.09177
       H     7.83221   -0.52742    2.53103
       O     7.05216   -0.05883    2.25717
      H1     6.50478   -0.80520    1.99692
       H    11.21766    1.49458    2.12701
       O    11.01477    2.04358    1.31854
      H1    11.55558    2.84135    1.51768
       H     7.66774   -3.34791   -2.48651
       O     7.64333   -2.79797   -1.68036
      H1     8.18266   -2.04286   -1.94258
       H    11.74928   -1.20313    0.95757
       O    11.15816   -1.78197    1.40876
      H1    10.25053   -1.51667    1.16999
       H     8.08046    3.26580    2.18071
       O     7.94038    3.66501    3.01985
      H1     8.28490    2.99909    3.63772
       H     7.64599    2.14569   -1.15563
       O     7.56807    1.60551   -1.94595
      H1     8.33872    1.05379   -1.96983
       H     6.46118   -0.57698   -0.55412
       O     5.52860   -0.49832   -0.21382
      H1     5.34306    0.35466   -0.62376
       H    11.35770    1.06323   -0.03913
       O    11.29978    0.62340   -0.91395
      H1    12.24463    0.52777   -1.08960

