60
frame 0 | Written by MDAnalysis XYZWriter (release 2.4.3)
       H   -15.94145   13.47206   10.77778
       O   -15.40552   13.57141    9.98714
      H1   -14.73494   12.88628   10.08909
       H   -11.93943   13.44259   10.44606
       O   -12.54870   12.74214   10.20714
      H1   -12.24002   12.55904    9.30149
       H   -13.31247   12.54566    7.58387
       O   -12.31891   12.43564    7.61272
      H1   -12.13503   11.58430    7.15979
       H   -16.99066   15.36302    3.92369
       O   -17.37398   15.83473    4.64881
      H1   -17.96905   15.20541    5.09325
       H   -14.98546   15.70418    7.77501
       O   -14.36070   14.97657    7.76058
      H1   -14.43462   14.70471    8.68043
       H   -14.55739   14.45161    3.19266
       O   -15.00040   14.18103    2.38146
      H1   -15.47476   13.39396    2.68342
       H   -12.87614   16.18755    7.74005
       O   -12.57028   17.05033    7.41441
      H1   -11.68607   17.10389    7.78192
       H   -14.09366   14.20058    5.85110
       O   -13.94448   14.57553    4.95521
      H1   -13.89834   15.51420    5.23035
       H   -17.88011   12.69716    8.18359
       O   -17.45823   13.55211    7.98266
      H1   -16.49716   13.35922    8.06995
       H   -16.17071   11.31601    3.57669
       O   -16.27518   12.20041    3.91421
      H1   -17.22365   12.37616    3.80654
       H   -11.58754   11.86697    4.34091
       O   -12.55645   11.81226    4.33367
      H1   -12.85628   12.65127    4.69513
       H   -13.17970    9.50187    7.72775
       O   -12.77872    9.82738    6.89218
      H1   -13.50877    9.88899    6.25265
       H   -18.46126   10.09889    5.16558
       O   -18.61189   10.90762    5.62886
      H1   -18.63347   11.51719    4.88001
       H   -18.69005   14.35958    6.89541
       O   -19.22204   14.81483    6.21579
      H1   -19.33674   15.71528    6.54456
       H   -12.62500   11.59991    2.54061
       O   -12.38484   11.45077    1.61095
      H1   -11.75647   12.16564    1.46685
       H   -17.48311   10.46603    6.80726
       O   -16.81676   10.08355    7.41517
      H1   -17.38484    9.57187    8.02773
       H   -15.76960   11.46221    6.94152
       O   -15.19142   12.22766    6.82414
      H1   -15.26779   12.45616    5.88146
       H   -14.42382    9.21391    3.35824
       O   -13.71202    9.20651    4.00598
      H1   -13.39739   10.14683    3.94865
       H   -15.63377    8.71547    6.67107
       O   -15.20132    7.93462    6.30970
      H1   -14.62245    8.24578    5.61651
       H   -16.85536    9.18527    3.09633
       O   -16.14156    9.64135    2.64863
      H1   -16.42735    9.86914    1.76072

