60
frame 1 | Written by MDAnalysis XYZWriter (release 2.4.3)
       H    15.23888   12.31522    7.72110
       O    15.13035   12.26011    6.77047
      H1    15.47156   11.40692    6.51996
       H    14.78020   13.83939    9.27803
       O    14.38870   12.96886    9.36984
      H1    13.46473   13.15053    9.16668
       H    19.13907   14.39223   11.00838
       O    18.19407   14.50642   11.09414
      H1    17.93532   14.57865   10.17444
       H    17.03992   16.98739   16.13236
       O    16.85142   17.90464   15.97035
      H1    15.92409   18.04909   16.26795
       H    14.50402   13.65743   14.95425
       O    14.05364   14.28073   15.57436
      H1    13.42346   13.77684   16.04953
       H    14.32258   16.65375    8.59562
       O    14.71475   16.88111    9.46377
      H1    14.01777   16.80466   10.13457
       H    13.75163   15.22462   11.63422
       O    12.99838   15.84552   11.61817
      H1    12.32818   15.36288   11.09810
       H    18.51986   12.76423   17.88966
       O    18.45489   12.00577   17.28354
      H1    18.79302   12.35273   16.46195
       H    15.93579   16.32775   13.32259
       O    16.73913   16.86856   13.32163
      H1    16.67107   17.39232   14.11916
       H    14.60953   11.49038   13.44260
       O    15.28879   12.12892   13.68316
      H1    16.11209   11.63754   13.47503
       H    18.22676   18.52604    9.26836
       O    18.94093   18.46201    8.58211
      H1    18.79828   19.21385    7.96784
       H    18.65178   16.99606    7.62055
       O    18.57265   16.20689    7.06134
      H1    17.90029   16.38634    6.36395
       H    15.48622   11.84240   15.67813
       O    15.56388   11.86814   16.65015
      H1    16.53986   11.83737   16.76619
       H    18.90749   11.35954    8.77211
       O    18.22008   11.50093    8.09112
      H1    18.18303   10.66315    7.63330
       H    18.57778   16.64758   11.03574
       O    17.99691   17.43067   10.99779
      H1    17.30399   17.19273   11.60368
       H    17.63441   13.31038   14.93264
       O    17.75130   14.24978   15.18124
      H1    16.87438   14.48684   15.49794
       H    17.02530   10.63275   11.59986
       O    17.43336   10.39075   12.46089
      H1    16.84710    9.63478   12.72349
       H    16.98216   10.90888    9.50807
       O    16.16374   10.72843    9.99003
      H1    15.71098   11.57974    9.98117
       H    17.11327   15.15301    8.18093
       O    16.54346   15.07551    8.97531
      H1    16.36864   15.99118    9.28234
       H    16.30404   14.41810   12.12823
       O    15.36624   14.43504   12.27517
      H1    15.24417   13.57842   12.67528

