60
frame 2 | Written by MDAnalysis XYZWriter (release 2.4.3)
       H    -7.35665   10.58323   10.93757
       O    -7.23489   11.31025   11.59244
      H1    -8.05073   11.21982   12.10020
       H   -10.19511   11.89196   13.13115
       O    -9.31362   12.24196   12.88662
      H1    -8.79284   12.24523   13.71396
       H   -11.86131   11.20498    9.90744
       O   -11.96510   11.88747    9.25720
      H1   -12.36520   11.43630    8.52552
       H   -12.10465   11.07882   12.95435
       O   -12.31576   11.58484   13.73870
      H1   -12.79177   10.89034   14.25421
       H    -9.39433   15.80982    9.26151
       O   -10.21140   15.28384    9.19254
      H1   -10.32094   14.93807   10.05722
       H   -10.81475   17.51099    8.21789
       O   -11.53001   17.83638    7.66701
      H1   -11.49972   18.78764    7.73871
       H    -9.57915   11.59020    8.65010
       O    -8.60303   11.62993    8.46914
      H1    -8.37286   10.76630    8.13826
       H   -11.54123    9.54394   11.39624
       O   -11.31940   10.45356   11.64833
      H1   -10.38808   10.34216   11.88646
       H   -13.28769   14.77033    7.58168
       O   -12.43915   14.34328    7.39549
      H1   -11.96239   14.57448    8.21636
       H   -13.85808   12.71248   12.88225
       O   -14.37619   13.49696   12.71597
      H1   -13.98497   13.82632   11.91070
       H   -13.26057   14.66344   10.15418
       O   -12.77999   14.03929   10.71645
      H1   -12.28796   13.48545   10.07884
       H   -14.58761   15.33804   15.74996
       O   -14.08401   15.69641   15.02787
      H1   -13.91164   14.94606   14.45035
       H   -14.21903   17.14921    9.01003
       O   -13.33239   16.94196    9.36357
      H1   -12.70123   17.47995    8.94038
       H   -11.00988   14.62512   11.50239
       O   -10.13437   14.67311   11.87492
      H1   -10.00367   13.83774   12.35117
       H    -8.53641   16.50802   11.59562
       O    -8.09063   16.49330   10.75081
      H1    -7.99355   15.54116   10.56459
       H   -12.91570   17.47104   13.35390
       O   -12.04624   17.90327   13.35445
      H1   -11.74137   17.78308   12.48289
       H    -9.58304   17.11357   13.90521
       O    -8.99191   16.49600   13.41029
      H1    -9.61055   15.89989   12.95760
       H    -6.77591   13.63851    9.39107
       O    -6.82517   13.65166   10.36124
      H1    -6.97590   12.72091   10.61697
       H    -9.25717   12.25850   15.72210
       O   -10.11203   12.13033   16.17100
      H1   -10.76087   12.51625   15.57045
       H   -12.06656   13.93695   16.46220
       O   -11.71815   14.65711   15.93934
      H1   -12.45894   15.09451   15.52047

