60
frame 2 | Written by MDAnalysis XYZWriter (release 2.4.3)
       H    13.25139  -14.51011   -1.14367
       O    12.72536  -14.78602   -1.91796
      H1    12.48752  -13.94004   -2.30775
       H    11.01197  -13.55216   -8.48063
       O    10.62525  -13.09815   -7.76768
      H1    11.07716  -12.24242   -7.78865
       H     8.82613  -13.16572   -7.45131
       O     8.08260  -12.74318   -6.98032
      H1     7.43053  -12.52134   -7.66329
       H     7.33756  -14.37939   -6.30290
       O     7.19171  -15.24769   -5.96398
      H1     8.09802  -15.62865   -5.90373
       H    11.18723  -13.62984   -6.19417
       O    11.22295  -13.79462   -5.24752
      H1    12.05552  -14.27148   -5.21731
       H     6.98724  -14.24642   -2.45190
       O     6.77843  -15.16147   -2.08499
      H1     7.67398  -15.55778   -2.00597
       H    12.00344  -17.53537   -2.55046
       O    11.78959  -17.37063   -3.49295
      H1    11.28124  -18.17944   -3.69676
       H     8.04618  -14.57826  -10.13921
       O     7.98126  -14.89559   -9.23555
      H1     8.86888  -15.25554   -9.04181
       H    13.62667  -12.64293   -4.00766
       O    12.97631  -12.32185   -3.37369
      H1    12.15197  -12.68252   -3.72025
       H     6.13652  -16.39234   -3.16666
       O     5.84593  -17.21607   -3.57537
      H1     6.24617  -17.93434   -3.03287
       H     7.83806  -18.54705   -1.57218
       O     7.53008  -18.89076   -2.42686
      H1     8.29955  -18.68592   -2.98126
       H    14.19044  -16.03424   -4.64409
       O    13.40340  -15.92368   -5.16235
      H1    12.80696  -16.52878   -4.72749
       H    10.14675  -12.90614   -1.73838
       O     9.89638  -13.04806   -2.67145
      H1     9.89552  -14.02956   -2.72091
       H    12.27301  -17.16304   -7.43471
       O    11.39240  -17.21345   -7.10531
      H1    10.87114  -17.20894   -7.92817
       H    10.28056  -15.90558   -1.94494
       O     9.49841  -15.66003   -2.41474
      H1     9.69944  -15.94677   -3.30473
       H    10.35942  -15.32051   -5.29969
       O     9.67124  -15.98278   -5.17541
      H1    10.01381  -16.76674   -5.64989
       H     4.59325  -15.93956   -7.35168
       O     5.04944  -16.67509   -6.88076
      H1     5.65327  -16.16701   -6.32803
       H     8.66919  -11.26966   -4.35160
       O     7.78857  -11.20419   -4.75365
      H1     7.86902  -11.77916   -5.52285
       H    10.67211  -17.62388   -9.71475
       O     9.88552  -17.31520   -9.26782
      H1     9.36523  -18.10273   -8.99467
       H     5.97537  -14.48463   -4.74082
       O     5.38514  -13.79936   -4.40397
      H1     5.90188  -13.39810   -3.70977

