60
frame 1 | Written by MDAnalysis XYZWriter (release 2.4.3)
       H    15.23888   12.31522    7.72110
       O    15.13035   12.26011    6.77047
      H1    15.47156   11.40692    6.51996
       H     9.02234    9.33590    3.19091
       O     8.76539   10.09337    3.72333
      H1     9.29469    9.98981    4.51906
       H    14.78020   13.83939    9.27803
       O    14.38870   12.96886    9.36984
      H1    13.46473   13.15053    9.16668
       H     7.92578   12.98880    2.38909
       O     8.73629   12.76865    2.88905
      H1     8.71561   11.80162    2.97759
       H     8.20735   11.42087    6.97989
       O     8.58090   10.56187    6.70925
      H1     8.30813    9.98924    7.42475
       H    11.71569   11.89128    5.19189
       O    11.85247   11.63481    4.28427
      H1    10.97706   11.37312    4.03966
       H    14.58870    9.75101    9.10140
       O    13.95893    9.26854    8.55338
      H1    14.38625    8.42939    8.34935
       H    10.74802    9.90571    7.85464
       O    11.45968   10.56499    7.96021
      H1    12.28993   10.01800    7.85345
       H    12.78954   16.61088    6.54292
       O    13.00003   16.04619    7.31556
      H1    12.76274   15.19481    6.94544
       H    11.98209    7.77420    5.36488
       O    11.68640    6.88014    5.35288
      H1    10.72096    6.95380    5.26131
       H    11.86826   15.08984    3.52825
       O    12.49702   14.36296    3.56396
      H1    12.06679   13.65133    3.97628
       H    14.05765    9.37507    3.76999
       O    13.39307    9.36199    4.48438
      H1    12.92899   10.16896    4.39890
       H    11.97772   12.62391    7.00424
       O    12.41748   13.36412    6.53939
      H1    13.34856   13.10831    6.42475
       H    15.51507   14.45691    3.42787
       O    14.97985   15.24586    3.28342
      H1    14.13523   15.00153    3.64764
       H     6.88654   13.04084    7.45335
       O     7.82086   13.02704    7.65183
      H1     8.11108   13.73362    7.03916
       H    16.58276    9.03767    7.24047
       O    15.91654    9.54873    6.72891
      H1    15.09615    9.37942    7.21488
       H    14.16334   12.45116    1.98383
       O    14.53948   11.86379    1.33415
      H1    13.74900   11.55038    0.83104
       H     9.86358   12.41541    1.32285
       O    10.36503   12.41965    0.48688
      H1    10.44295   13.35069    0.29202
       H     9.80866   14.91813    3.29489
       O    10.13318   15.67907    3.80504
      H1     9.60903   15.63028    4.59912
       H    16.02057    9.69630    4.87632
       O    16.31811    9.35829    4.03335
      H1    17.18639    9.76916    3.96628

