60
frame 1 | Written by MDAnalysis XYZWriter (release 2.4.3)
       H    15.61540   -5.70804   11.48935
       O    15.25659   -5.02915   12.04277
      H1    15.92073   -4.89659   12.72849
       H     9.94575   -7.35355   13.30488
       O    10.49202   -8.10434   13.54532
      H1    11.38564   -7.73984   13.63238
       H    10.79113  -11.24618   11.87156
       O    11.10947  -11.63972   12.71223
      H1    10.33382  -11.65804   13.27092
       H    14.74466   -8.01819   11.56677
       O    15.23403   -7.80557   10.74543
      H1    14.54167   -7.40399   10.21134
       H    12.26564   -7.01923   11.82690
       O    11.95465   -7.47465   11.02286
      H1    11.17959   -7.99024   11.40504
       H    14.52787   -9.49423   13.56867
       O    14.72586   -8.52610   13.48213
      H1    15.61977   -8.41788   13.83278
       H    15.58819  -10.97468   15.33583
       O    16.51498  -10.68211   15.27231
      H1    16.80427  -11.18386   14.49368
       H    12.20243   -7.09375   16.76587
       O    12.85887   -7.56547   16.28138
      H1    12.95510   -7.10576   15.44295
       H    17.08363  -11.33258   12.18971
       O    16.50888  -11.88047   12.75047
      H1    15.72543  -11.33898   12.90381
       H    13.96518  -13.91699   15.40113
       O    14.30701  -13.73028   14.51058
      H1    13.70248  -14.19431   13.90248
       H    18.67268   -9.68446   12.11784
       O    18.54472   -9.89718   13.04747
      H1    19.38060  -10.21312   13.31714
       H    15.35827   -6.40222   17.15438
       O    16.28686   -6.27302   17.01098
      H1    16.56314   -7.00371   16.44872
       H    13.58198   -6.43280   13.13012
       O    12.70412   -6.41313   13.51062
      H1    12.48615   -5.47524   13.55816
       H    11.52073  -10.16523   16.50207
       O    12.46406  -10.02922   16.68001
      H1    12.69668   -9.14700   16.36318
       H    10.11882   -9.04608   14.88718
       O     9.94071   -9.57648   15.67839
      H1     9.70269  -10.43517   15.33077
       H    14.90562  -11.61579   17.47093
       O    14.19322  -12.17279   17.13805
      H1    13.52834  -11.55806   16.80504
       H    11.83954  -12.58151   11.50229
       O    12.21270  -13.20331   10.83603
      H1    13.07191  -12.78024   10.62642
       H    13.29732  -11.98213   14.20953
       O    13.46427  -11.11679   13.80936
      H1    12.62698  -11.05669   13.33172
       H    17.82587   -7.78573   15.13805
       O    17.14553   -7.48721   14.51721
      H1    17.08344   -6.55340   14.64120
       H    16.88154  -10.81927   17.07998
       O    16.61749  -10.73924   18.03191
      H1    16.17891   -9.84982   18.02983

