60
frame 1 | Written by MDAnalysis XYZWriter (release 2.4.3)
       H    -1.17102    0.63974    9.32875
       O    -1.27377    1.22151    8.53348
      H1    -2.14282    1.62765    8.66261
       H     2.45725    2.98143    7.45963
       O     2.48147    3.77662    8.02239
      H1     1.62071    3.83823    8.43922
       H     0.56604   -2.43003    7.84027
       O    -0.37874   -2.35633    8.04149
      H1    -0.62680   -3.27208    8.09883
       H     3.59003   -2.01541   11.17612
       O     3.84103   -1.09226   11.25227
      H1     3.06181   -0.67819   11.64561
       H     2.41299   -4.67157    8.75399
       O     3.07574   -4.02416    8.97207
      H1     3.92270   -4.47506    8.73577
       H     2.64454   -1.10721    7.62903
       O     2.73370   -1.96605    7.18063
      H1     2.61899   -2.63526    7.87507
       H    -2.83736   -2.36162    9.94672
       O    -2.15880   -3.05439    9.88447
      H1    -1.39438   -2.58095    9.47697
       H     0.86531    2.14291   11.24441
       O     1.80266    2.02555   11.19371
      H1     2.05730    2.84524   11.60671
       H     2.22793    0.73440    9.83218
       O     1.89492    0.05101    9.25020
      H1     0.97788   -0.08366    9.53104
       H    -0.12786   -0.97313   11.44862
       O    -0.45902   -0.84804   10.54883
      H1    -1.41768   -0.76426   10.61857
       H     2.98675   -1.59925    5.49661
       O     3.15415   -1.35113    4.60211
      H1     3.88689   -0.71250    4.65602
       H     2.41877   -3.82996   12.49770
       O     3.10819   -3.73476   11.79615
      H1     2.60590   -3.79768   10.96824
       H     5.47642    1.46410   10.12146
       O     5.29558    0.73284    9.49835
      H1     4.64129    0.16823   10.00061
       H     1.14055   -1.24399   13.11483
       O     0.25232   -1.58593   13.08206
      H1     0.35127   -2.49109   13.36253
       H     2.61290    0.09907   14.59777
       O     2.43868    0.00433   13.63704
      H1     2.04120    0.86151   13.41641
       H    -0.84321    3.21296    9.79958
       O    -0.83569    3.00231   10.76216
      H1    -1.70274    2.56474   10.89383
       H     5.91914   -1.82524    9.39438
       O     5.77001   -2.05806    8.47632
      H1     5.74196   -1.20588    8.02005
       H    -0.86161    0.36366    6.74739
       O    -0.75186   -0.39505    6.12808
      H1    -0.74794   -1.14202    6.73799
       H     0.17712   -4.03467   10.81564
       O     0.68716   -3.46567   10.25206
      H1     0.41577   -2.58595   10.51708
       H     1.97651    0.90591    7.75310
       O     1.93897    1.38504    6.90345
      H1     1.13923    1.04436    6.52116

