60
frame 1 | Written by MDAnalysis XYZWriter (release 2.4.3)
       H    -2.04320   -9.00478  -15.33644
       O    -1.86537   -8.20531  -15.86590
      H1    -1.08842   -7.88822  -15.41703
       H    -1.71742   -7.54216  -17.88920
       O    -1.24113   -7.09935  -18.61542
      H1    -0.81513   -6.31970  -18.21892
       H     2.30274   -7.35402  -18.98789
       O     2.42301   -6.40968  -19.14727
      H1     1.76575   -6.03970  -18.53167
       H    -5.53248   -7.74495  -14.96103
       O    -4.98112   -8.02072  -14.22411
      H1    -5.10436   -8.96333  -14.19926
       H    -2.04420  -10.86336  -13.88975
       O    -2.40404  -10.98524  -14.77468
      H1    -1.81653  -11.66392  -15.13969
       H     0.95776   -4.49032  -12.11251
       O     0.73014   -5.42393  -12.21905
      H1     1.42588   -5.78599  -12.77751
       H     0.23133   -4.67652  -16.72884
       O     0.72736   -5.33770  -17.25990
      H1     1.21832   -5.87047  -16.60279
       H    -2.82066   -6.43316  -13.63300
       O    -3.08175   -5.64632  -14.07414
      H1    -3.56235   -5.96946  -14.84415
       H     0.62686   -8.99193  -14.07968
       O     0.41095   -8.04911  -14.00430
      H1     1.00296   -7.58065  -14.61164
       H    -1.71270   -7.84802  -12.46352
       O    -1.75617   -6.95796  -12.08173
      H1    -0.86007   -6.64356  -12.14410
       H    -1.15584  -10.66540  -11.23953
       O    -1.59746  -10.27183  -12.02603
      H1    -2.48932  -10.60512  -11.97618
       H    -4.51080   -9.96474  -16.82023
       O    -5.36425   -9.86361  -16.42122
      H1    -6.00016   -9.91524  -17.13811
       H    -0.16132   -4.66479  -13.77690
       O    -0.52599   -4.58780  -14.68160
      H1    -1.44491   -4.83356  -14.53839
       H     2.46791  -10.21776  -14.38590
       O     1.57502  -10.53776  -14.19155
      H1     1.72739  -11.21675  -13.47485
       H    -4.37297   -7.72795  -17.40581
       O    -3.98306   -6.95159  -16.99617
      H1    -3.27987   -7.37363  -16.45644
       H     2.84323   -9.80152  -17.17108
       O     2.31260   -9.02820  -17.29492
      H1     1.47227   -9.33224  -17.65867
       H    -2.16982   -3.10409  -18.49318
       O    -1.59617   -3.63417  -17.92506
      H1    -2.00162   -3.45935  -17.05056
       H     3.05582   -7.09985  -15.03631
       O     2.35103   -6.44409  -15.01412
      H1     2.68096   -5.74631  -14.41883
       H    -5.63738   -4.72074  -18.23856
       O    -5.61838   -4.72904  -17.27723
      H1    -4.79525   -5.21161  -17.09238
       H     1.21785  -11.46818  -15.69682
       O     1.31980  -11.83740  -16.58792
      H1     0.93232  -11.15888  -17.15936

