60
frame 1 | Written by MDAnalysis XYZWriter (release 2.4.3)
       H    11.08181   -9.74008  -18.71006
       O    10.42857   -9.53245  -18.02699
      H1     9.63597  -10.04579  -18.31030
       H     3.56117  -11.51300  -18.37174
       O     3.95966  -11.27789  -17.53195
      H1     3.36763  -11.64596  -16.86904
       H     7.18809  -10.26716  -18.23186
       O     7.92399  -10.81479  -18.50440
      H1     7.74093  -10.82066  -19.44194
       H     2.30274   -7.35402  -18.98789
       O     2.42301   -6.40968  -19.14727
      H1     1.76575   -6.03970  -18.53167
       H     9.80477   -8.32337  -16.34153
       O     9.26309   -7.60585  -15.96554
      H1     8.66640   -7.43261  -16.68733
       H     6.24165   -6.23999  -14.98019
       O     5.36498   -6.60937  -14.99308
      H1     5.14074   -6.76148  -14.05494
       H     0.23133   -4.67652  -16.72884
       O     0.72736   -5.33770  -17.25990
      H1     1.21832   -5.87047  -16.60279
       H     4.75761  -10.34703  -13.38818
       O     4.26705   -9.76715  -14.00456
      H1     4.87065   -9.60705  -14.76093
       H     5.31284   -7.82031  -18.15812
       O     5.47883   -8.65055  -18.63009
      H1     5.08724   -9.34383  -18.07498
       H     2.46791  -10.21776  -14.38590
       O     1.57502  -10.53776  -14.19155
      H1     1.72739  -11.21675  -13.47485
       H     4.92091   -8.39423  -13.05404
       O     5.17551   -7.62473  -12.54368
      H1     4.38780   -7.52750  -12.01503
       H     7.91692   -5.81008  -18.99391
       O     8.58632   -6.36433  -18.56907
      H1     9.32029   -5.79587  -18.42814
       H     5.03123   -6.41728  -16.60435
       O     4.94685   -6.26714  -17.55081
      H1     3.97825   -6.09888  -17.61021
       H     2.84323   -9.80152  -17.17108
       O     2.31260   -9.02820  -17.29492
      H1     1.47227   -9.33224  -17.65867
       H     3.74837  -13.07146  -14.16272
       O     3.80296  -12.84837  -15.10757
      H1     4.66252  -13.21583  -15.38226
       H     5.48734  -12.38822  -17.76226
       O     6.20741  -12.99902  -17.95756
      H1     6.92810  -12.46349  -18.30965
       H     6.79732   -9.24477  -15.53818
       O     6.28753   -9.83849  -16.08482
      H1     6.63556  -10.64000  -15.73049
       H     8.46627   -8.58130  -14.79967
       O     7.99659   -9.02645  -14.07266
      H1     8.04252   -8.34683  -13.40333
       H     3.05582   -7.09985  -15.03631
       O     2.35103   -6.44409  -15.01412
      H1     2.68096   -5.74631  -14.41883
       H     1.21785  -11.46818  -15.69682
       O     1.31980  -11.83740  -16.58792
      H1     0.93232  -11.15888  -17.15936

