60
frame 2 | Written by MDAnalysis XYZWriter (release 2.4.3)
       H   -18.53368  -11.91555  -14.98911
       O   -18.74710  -12.04468  -14.04766
      H1   -19.33280  -12.80088  -14.06402
       H   -18.09641   -5.87197  -13.65254
       O   -17.30507   -6.31523  -13.30955
      H1   -17.60812   -7.22958  -13.41987
       H   -12.15815   -9.59456  -14.74451
       O   -12.47826   -8.68598  -14.88809
      H1   -12.40304   -8.46822  -15.80878
       H   -11.61619   -8.14219  -12.82472
       O   -11.60915   -8.79477  -12.10796
      H1   -10.66442   -8.82932  -11.80977
       H   -15.72052   -8.31307  -11.45908
       O   -15.92011   -9.19106  -11.85122
      H1   -15.07135   -9.65515  -11.74672
       H   -16.86520   -5.10807  -10.45504
       O   -16.28651   -5.37394  -11.15623
      H1   -16.89095   -5.55035  -11.89332
       H   -17.69305   -8.60926  -10.74396
       O   -18.52061   -8.07793  -10.69176
      H1   -18.33816   -7.35280  -10.07242
       H   -13.89194  -11.04714  -13.72726
       O   -13.90991  -11.43133  -12.83966
      H1   -14.66167  -12.03616  -12.90096
       H   -13.85271   -7.27014  -18.22970
       O   -13.59602   -7.46859  -19.11557
      H1   -13.66608   -8.46521  -19.09724
       H   -15.66831   -3.88654  -17.53508
       O   -15.18422   -3.87440  -16.70777
      H1   -14.54458   -4.60653  -16.79748
       H   -12.81230   -9.96668  -18.54445
       O   -13.79739  -10.05655  -18.50982
      H1   -14.00167  -10.20905  -17.57624
       H   -14.08202   -7.51393   -9.93368
       O   -13.89007   -8.33818  -10.38251
      H1   -13.10370   -8.12539  -10.88836
       H   -15.36658   -6.25693  -13.31247
       O   -14.56193   -6.76069  -13.49342
      H1   -14.84811   -7.64552  -13.74939
       H   -16.27843   -4.98869  -13.82570
       O   -15.90442   -4.08180  -13.94550
      H1   -15.67983   -3.96286  -14.87559
       H   -15.00178  -13.53141  -15.65668
       O   -15.93354  -13.53311  -15.43617
      H1   -15.96119  -13.15449  -14.54284
       H   -13.37610   -6.44754  -16.18208
       O   -14.17766   -6.69253  -16.65196
      H1   -14.70596   -7.03678  -15.92475
       H   -12.11782   -5.41513  -11.94436
       O   -12.48316   -6.21546  -11.54813
      H1   -13.19502   -6.39118  -12.16489
       H   -16.67801  -13.85966  -12.68765
       O   -16.44253  -12.94540  -12.93114
      H1   -17.24084  -12.53245  -13.29736
       H   -16.06296   -9.72919  -14.95222
       O   -16.18336   -8.87981  -14.47144
      H1   -16.08389   -9.15385  -13.54874
       H   -15.88974  -11.84026  -16.66522
       O   -15.74718  -10.86419  -16.67161
      H1   -16.17958  -10.56256  -17.48101

