60
frame 1 | Written by MDAnalysis XYZWriter (release 2.4.3)
       H   -15.88766   -5.52891   16.21063
       O   -15.13892   -5.22122   15.66260
      H1   -15.47094   -5.42034   14.76052
       H   -16.25681   -5.10454   18.58166
       O   -16.46116   -4.34743   19.11613
      H1   -16.91199   -3.78371   18.47388
       H   -16.98047   -2.50650   16.53089
       O   -17.78075   -2.52928   17.07315
      H1   -18.44263   -2.09673   16.55063
       H   -19.22653   -6.53768   12.26253
       O   -18.62003   -6.93416   12.88240
      H1   -19.15720   -7.61738   13.24973
       H   -16.98908   -6.97494   18.34639
       O   -16.80887   -6.64918   17.45524
      H1   -17.05274   -7.43165   16.93959
       H   -14.80482   -2.62119   17.19771
       O   -15.27072   -2.37360   16.35752
      H1   -15.16911   -3.17250   15.85237
       H   -12.04704   -4.60909   14.02615
       O   -12.22557   -4.74983   13.09500
      H1   -13.08768   -4.39977   12.95853
       H   -15.14612   -3.27855   12.73352
       O   -14.95381   -4.12464   13.07043
      H1   -15.17490   -4.71642   12.34391
       H   -16.01726  -10.62036   14.15104
       O   -16.65230  -10.53605   13.40777
      H1   -16.09050  -10.69772   12.65098
       H   -16.77173   -7.41144   12.71991
       O   -15.84913   -7.20779   12.97582
      H1   -15.61809   -7.86909   13.62607
       H   -15.38635   -5.85854   10.40750
       O   -16.03946   -5.25128   10.80849
      H1   -16.33909   -5.74127   11.56210
       H   -17.15939   -0.32095   14.74989
       O   -17.77996   -0.85827   14.25569
      H1   -17.59910   -0.65433   13.32736
       H   -17.92426   -5.91471   15.88959
       O   -18.08347   -5.53058   15.01824
      H1   -18.32875   -6.27553   14.47572
       H   -18.04424   -3.11193   11.25958
       O   -18.32485   -2.59469   10.47919
      H1   -19.27379   -2.74393   10.48027
       H   -13.52614   -4.32086   15.89591
       O   -12.56841   -4.19013   15.83644
      H1   -12.23430   -4.73310   16.56112
       H   -18.75954   -9.33569   16.55615
       O   -18.58660   -8.87399   15.72068
      H1   -18.90802   -9.51503   15.09556
       H   -17.28144   -5.12066    9.69749
       O   -17.97514   -5.39744    9.09446
      H1   -18.13138   -4.61958    8.54077
       H   -18.52832   -2.51950   13.48817
       O   -19.01523   -3.35419   13.39006
      H1   -18.50174   -4.03435   13.85308
       H   -17.20110   -0.21407   19.09292
       O   -18.12272   -0.41592   18.83564
      H1   -18.03776   -1.21376   18.28093
       H   -14.84651   -7.27566   15.67591
       O   -14.49733   -8.12944   15.31400
      H1   -13.57428   -7.94162   15.22901

