60
frame 1 | Written by MDAnalysis XYZWriter (release 2.4.3)
       H    14.61895    4.81945   13.03313
       O    14.21856    4.02997   12.60319
      H1    13.72268    4.42226   11.88082
       H     9.61632    9.16258   12.68749
       O    10.32170    8.75576   13.19197
      H1    10.94887    8.47311   12.52013
       H     9.60490    3.75108   10.34791
       O    10.31599    3.80512    9.69600
      H1    10.40288    2.88625    9.37112
       H     9.44917    1.02479   13.09795
       O    10.31711    1.30711   13.41044
      H1    10.13136    2.24267   13.62998
       H     7.34685    2.96230   11.41662
       O     8.31615    3.01241   11.37529
      H1     8.53498    2.29809   10.75675
       H     9.92746    9.00663   15.00719
       O     9.51234    9.22229   15.85548
      H1     9.22232    8.37444   16.19791
       H    11.38702    5.85441   14.75225
       O    10.59256    5.87389   14.21742
      H1    10.71116    6.72951   13.77279
       H    11.03833    5.81119   11.82924
       O    11.56509    6.53817   11.51197
      H1    11.37685    6.62121   10.57988
       H    13.36042    6.95403   12.57625
       O    13.94925    6.75319   13.30029
      H1    13.85920    7.53712   13.88877
       H    13.68411    6.05636   15.92971
       O    12.73246    6.05885   15.81853
      H1    12.41339    5.60865   16.61806
       H     6.54803    3.57495   13.87235
       O     5.93440    3.56040   14.62596
      H1     6.42018    4.13874   15.21355
       H    12.97804    3.15926   13.75466
       O    12.43606    2.75983   14.43317
      H1    12.02515    2.00522   14.00269
       H     6.92479    8.15064   12.15081
       O     7.43370    7.72642   11.48430
      H1     7.69204    8.47204   10.90624
       H    13.02323    8.24974   15.67015
       O    13.88586    8.60971   15.37706
      H1    14.42684    8.43640   16.13718
       H     8.02065    6.37905   16.52353
       O     8.40357    7.04645   17.15994
      H1     9.12996    6.60025   17.57988
       H     9.40306    4.46372   14.90823
       O     8.73709    3.86812   15.29097
      H1     8.79836    4.01594   16.23356
       H    13.13507    9.61044   13.79250
       O    13.41011    9.57041   12.85042
      H1    12.55855    9.66509   12.40696
       H    10.32123    3.85862   17.69801
       O     9.39998    3.72245   17.92195
      H1     9.32995    2.76832   17.66422
       H    11.35690    7.21945   18.44729
       O    10.92270    6.42544   18.16347
      H1    10.62211    6.01434   18.98744
       H    12.07260    3.31855   16.41254
       O    12.40833    3.43292   17.31935
      H1    13.00758    2.69155   17.50070

