60
frame 1 | Written by MDAnalysis XYZWriter (release 2.4.3)
       H   -13.70342   -1.49452   -4.85954
       O   -14.14623   -2.30250   -5.17258
      H1   -14.48273   -2.73941   -4.37105
       H   -11.47630   -2.63224   -0.98369
       O   -12.31320   -2.99590   -1.27580
      H1   -12.69431   -3.28552   -0.42561
       H   -17.73564    0.54961   -1.65346
       O   -17.32546   -0.10429   -2.19852
      H1   -18.04165   -0.41579   -2.75401
       H   -13.77779   -5.03027    0.81550
       O   -14.08315   -4.17480    0.52933
      H1   -14.52048   -3.81953    1.34465
       H   -18.40976    1.93594    0.26852
       O   -19.16393    2.08306   -0.36271
      H1   -18.90087    2.79938   -0.94563
       H   -17.42226    4.13075   -2.23383
       O   -17.73367    3.33913   -2.69695
      H1   -17.85278    3.64191   -3.60086
       H   -14.84544    2.21978   -0.38422
       O   -14.21415    1.58353   -0.09848
      H1   -13.98768    1.81836    0.83257
       H   -13.95499    0.87739   -3.89748
       O   -13.12360    0.48954   -4.14267
      H1   -12.44683    1.05207   -3.73134
       H   -17.69997   -1.88086    1.79220
       O   -17.51373   -2.19847    2.68527
      H1   -16.59334   -1.95312    2.88802
       H   -14.63876   -0.94279    2.41077
       O   -14.55883   -1.65535    1.76568
      H1   -14.60132   -1.14042    0.95712
       H   -15.65959   -6.35969   -1.33480
       O   -16.00474   -5.59390   -0.86937
      H1   -15.25512   -5.22524   -0.39712
       H   -15.38696   -0.37591   -5.47349
       O   -15.69786    0.43574   -5.93093
      H1   -15.24088    0.39525   -6.75327
       H   -17.50509   -4.69253    0.52642
       O   -18.24547   -4.11560    0.78645
      H1   -18.24443   -4.05192    1.75418
       H   -15.22685   -2.87857   -2.38261
       O   -15.13371   -3.75559   -2.79745
      H1   -15.41170   -4.34662   -2.11093
       H   -12.51963   -1.35514   -1.49920
       O   -12.28772   -0.41880   -1.72534
      H1   -12.66614   -0.33565   -2.60126
       H   -15.96609    0.97881    0.38030
       O   -16.85365    1.15315    0.78845
      H1   -17.31649    0.29580    0.66336
       H   -14.42847   -0.44494   -1.37319
       O   -15.04437   -1.17827   -1.37514
      H1   -15.90450   -0.76911   -1.60683
       H   -15.76514    2.57023   -2.90090
       O   -15.49201    1.65736   -2.76778
      H1   -16.26366    1.13736   -3.05544
       H   -12.14672    0.39670   -0.11748
       O   -11.63321    0.50660    0.69495
      H1   -11.27176   -0.37390    0.81845
       H   -18.03520   -2.68595   -4.56729
       O   -18.11103   -1.83520   -4.11266
      H1   -18.35857   -1.26586   -4.87900

