60
frame 2 | Written by MDAnalysis XYZWriter (release 2.4.3)
       H     7.40670    7.92874    3.64678
       O     8.06191    7.67134    2.98842
      H1     7.56813    7.18792    2.32864
       H     8.68166    6.40385    4.30432
       O     9.08144    6.17097    5.16106
      H1     9.02042    5.21076    5.12946
       H     8.78353    3.62713    0.04441
       O     8.44973    2.77025    0.33901
      H1     9.26516    2.29377    0.54315
       H     7.51369    7.93024   -0.76659
       O     7.22467    7.20093   -1.40279
      H1     7.27413    7.68219   -2.25406
       H    10.24115    7.44092    3.62941
       O    11.10892    7.80380    3.38663
      H1    11.70992    7.43050    4.04862
       H     4.17781    5.67726   -1.59592
       O     4.31926    6.48313   -1.05561
      H1     5.13480    6.86176   -1.42558
       H     4.51426    7.46879    0.97299
       O     4.07655    7.96484    1.63524
      H1     3.20250    7.59659    1.60086
       H     3.09523    3.41360    2.76356
       O     3.80142    2.84879    3.15474
      H1     4.31482    3.53605    3.61098
       H     4.34174    9.63735    1.42720
       O     4.45101   10.57925    1.36685
      H1     4.51693   10.71669    0.41777
       H     6.30254    2.55061    1.48008
       O     5.60460    2.95746    0.96097
      H1     4.84377    2.97488    1.54205
       H    11.16997    5.40679    1.67426
       O    10.93540    6.15354    1.07547
      H1    10.99895    6.93639    1.65284
       H     8.83299    8.45167    1.10704
       O     8.87765    8.66931    0.18905
      H1     9.31861    9.53048    0.15207
       H     4.93761    2.51230   -0.68219
       O     4.62336    1.88945   -1.36156
      H1     3.74120    1.67415   -1.02669
       H     5.71812    4.14439   -2.71504
       O     4.74874    4.16545   -2.88132
      H1     4.44568    3.35028   -2.46041
       H     8.58380    6.14343   -0.96805
       O     9.20635    5.40498   -0.83638
      H1     9.73816    5.67103   -0.09500
       H     6.19515    5.45721    0.56540
       O     6.61820    5.82144    1.31539
      H1     6.88442    5.02742    1.78389
       H     8.08046    3.26580    2.18071
       O     7.94038    3.66501    3.01985
      H1     8.28490    2.99909    3.63772
       H     7.64599    2.14569   -1.15563
       O     7.56807    1.60551   -1.94595
      H1     8.33872    1.05379   -1.96983
       H     6.49104    4.21231    3.95066
       O     5.69438    4.63518    4.24419
      H1     5.85757    5.60735    4.08465
       H     6.23390   10.39813    1.45456
       O     7.11077   10.82372    1.50536
      H1     7.06521   11.62118    0.95802

