60
frame 0 | Written by MDAnalysis XYZWriter (release 2.4.3)
       H    12.18845    5.86088    1.46676
       O    11.69458    5.03923    1.69756
      H1    11.80768    4.98689    2.64826
       H     9.93488   -2.03467    2.66272
       O    10.07679   -2.54532    1.88625
      H1     9.54008   -2.05395    1.23465
       H     8.00215    1.64448   -0.26146
       O     8.60125    2.32917   -0.60308
      H1     9.41885    2.07881   -0.12997
       H     8.02710    2.58533   -2.49119
       O     7.62535    3.11374   -3.17805
      H1     6.88685    2.54149   -3.45268
       H    12.03480    0.16165   -4.21529
       O    12.44516    0.71520   -3.56874
      H1    11.67621    1.14219   -3.16363
       H     9.20589   -0.08674    4.11361
       O     9.56863   -0.97059    4.12509
      H1    10.46853   -0.77353    4.39068
       H    11.60748    3.76195   -3.37524
       O    11.12265    3.46713   -2.58160
      H1    10.67643    4.25809   -2.23879
       H     9.20397    6.92858   -1.67755
       O    10.00407    6.40127   -1.60920
      H1    10.63861    6.98354   -2.02097
       H     6.79454    4.84358   -0.40363
       O     6.64253    4.90942   -1.34219
      H1     7.06672    4.16916   -1.75161
       H    11.03857   -0.53160   -1.37851
       O    11.39673   -1.01461   -0.63367
      H1    11.18272   -0.40858    0.10728
       H     6.88662    0.07977    2.52766
       O     6.72368   -0.58771    3.17944
      H1     7.33780   -1.29292    3.02221
       H    11.78152    3.35544   -0.90939
       O    12.39909    3.28524   -0.18109
      H1    11.97312    3.87372    0.47860
       H    10.54984    1.68429    1.74160
       O    11.06992    1.26619    1.01535
      H1    11.70992    1.92961    0.68196
       H     8.59478    3.15294   -4.69957
       O     8.84373    3.24999   -5.61400
      H1     9.54390    2.60077   -5.74164
       H     8.56628   -2.17236   -1.04829
       O     8.82788   -1.68249   -0.22912
      H1     9.78077   -1.53666   -0.32540
       H     8.22963    5.08436    2.52726
       O     8.13245    4.52144    1.72830
      H1     8.79809    4.98749    1.16239
       H     8.87537    3.03571    2.40031
       O     9.20919    2.19417    2.71244
      H1     9.59951    2.31565    3.58943
       H     7.60283    1.75503    1.98839
       O     6.89496    1.45770    1.42799
      H1     6.20268    2.09902    1.55938
       H     9.09954   -1.05309   -2.30884
       O     9.85459   -0.67860   -2.79708
      H1     9.46358   -0.47945   -3.66963
       H     5.26022    2.92315   -1.14218
       O     4.37637    2.53964   -1.32827
      H1     3.83463    2.85492   -0.62661

