60
frame 2 | Written by MDAnalysis XYZWriter (release 2.4.3)
       H    -7.61272    8.05536  -10.35062
       O    -7.10757    8.70417  -10.80583
      H1    -7.78109    9.30063  -11.15100
       H    -8.69620    5.74778  -10.19903
       O    -8.79131    6.71381  -10.12507
      H1    -9.38907    6.84668   -9.38310
       H   -13.19259    7.30475  -10.07753
       O   -12.33884    7.02086  -10.38391
      H1   -11.96142    7.83304  -10.77327
       H    -8.82482   11.02493  -12.31644
       O    -8.97794   10.23726  -11.76818
      H1    -9.26551    9.57837  -12.41963
       H   -11.38256   11.22917   -8.78786
       O   -12.23249   11.68920   -8.58634
      H1   -12.80131   10.95389   -8.32603
       H    -7.58618   12.97022   -9.33901
       O    -7.25461   12.89249  -10.23797
      H1    -6.61306   12.18992  -10.15802
       H   -13.80376    9.73775   -7.03953
       O   -13.31614    9.40642   -7.78154
      H1   -12.47306    9.08495   -7.38420
       H   -12.17528   12.87276  -11.41916
       O   -12.76485   13.31926  -10.82500
      H1   -12.50329   12.90575   -9.96761
       H    -8.10625   14.26126   -6.78967
       O    -8.12513   14.02448   -7.74722
      H1    -9.02646   13.71986   -7.85777
       H    -7.47539    6.70405   -7.12188
       O    -7.19233    6.15924   -7.86296
      H1    -7.61148    6.60180   -8.63103
       H    -8.27229    8.81329   -6.54684
       O    -8.15386    8.00834   -6.01241
      H1    -7.50883    8.28540   -5.34195
       H    -7.61094   10.55898   -4.77200
       O    -6.99758   11.01925   -5.38628
      H1    -7.20068   11.94130   -5.25278
       H   -12.31269    9.96974  -11.33032
       O   -11.62565    9.44005  -10.91518
      H1   -10.84422    9.96088  -10.88008
       H   -10.19089    9.53154   -6.12814
       O   -10.73886    8.98047   -6.72120
      H1   -10.14216    8.22425   -6.83210
       H    -5.23853   11.18552   -9.18752
       O    -5.22629   10.64121   -9.97580
      H1    -5.99943   10.09683   -9.83809
       H    -6.76034    9.22392   -8.07496
       O    -7.60709    9.72480   -8.03870
      H1    -7.35257   10.44010   -7.50274
       H    -9.22738   11.54992  -10.20886
       O    -9.64906   11.31754   -9.35758
      H1    -9.22168   10.50443   -9.09560
       H   -11.34094   13.09691   -7.79285
       O   -10.77805   13.73743   -7.35392
      H1   -10.88332   14.47704   -7.95027
       H   -10.60405    5.81189   -7.77522
       O   -10.66609    6.68172   -8.16841
      H1   -10.92258    6.59072   -9.07751
       H    -9.74527   14.20161  -11.56117
       O    -9.69992   13.38092  -12.07020
      H1    -9.95131   13.65444  -12.96787

