60
frame 1 | Written by MDAnalysis XYZWriter (release 2.4.3)
       H    -2.46889   -4.12451   11.53016
       O    -2.29794   -4.50972   12.40775
      H1    -3.02971   -4.16787   12.95037
       H    -0.76840   -4.57502    6.63792
       O    -0.78093   -5.04000    7.45819
      H1     0.11947   -5.34847    7.60340
       H    -5.96538   -9.03251    9.36943
       O    -5.07253   -9.10324    9.77116
      H1    -4.69322   -8.23089    9.60659
       H     0.56604   -2.43003    7.84027
       O    -0.37874   -2.35633    8.04149
      H1    -0.62680   -3.27208    8.09883
       H    -5.51843   -7.27171   12.73113
       O    -6.07245   -6.51916   12.46996
      H1    -6.24026   -6.73228   11.55036
       H    -3.02184   -9.19186    6.74091
       O    -2.81968  -10.12273    6.55001
      H1    -3.36599  -10.60939    7.17791
       H    -1.56032   -6.70171    7.22548
       O    -2.14512   -7.37574    6.83081
      H1    -2.03029   -7.16285    5.91442
       H     1.80000   -6.72080    8.91928
       O     1.50081   -6.25758    8.14022
      H1     1.49106   -6.96850    7.48851
       H    -2.83736   -2.36162    9.94672
       O    -2.15880   -3.05439    9.88447
      H1    -1.39438   -2.58095    9.47697
       H    -3.23586   -9.33020   11.83086
       O    -2.27361   -9.52280   11.85179
      H1    -1.98382   -9.28555   10.95715
       H    -6.01296   -7.82669    6.95362
       O    -5.41083   -8.43294    6.47846
      H1    -5.82417   -9.28110    6.58500
       H    -3.42531   -5.09884    6.83028
       O    -3.79821   -4.23038    7.02742
      H1    -4.34576   -4.43183    7.80208
       H    -5.22422   -4.00485   11.89069
       O    -5.90193   -3.35582   11.59769
      H1    -6.35295   -3.21217   12.43847
       H    -6.01003   -4.67924    9.96265
       O    -5.87954   -4.73326    9.02194
      H1    -6.55264   -4.15610    8.67566
       H    -7.93257   -7.66374    7.49182
       O    -7.33660   -7.40362    8.19251
      H1    -7.17995   -6.45882    8.06637
       H    -1.99939   -8.14416   12.74578
       O    -1.59411   -7.42395   13.25574
      H1    -1.77437   -6.60681   12.76124
       H    -2.78744   -6.38144    9.29844
       O    -2.97502   -7.32432    9.42764
      H1    -2.72232   -7.75748    8.59700
       H     0.17712   -4.03467   10.81564
       O     0.68716   -3.46567   10.25206
      H1     0.41577   -2.58595   10.51708
       H    -0.31322   -9.63739    8.99985
       O    -0.16237   -9.27938    9.88139
      H1     0.66389   -8.78505    9.79099
       H    -5.33701   -9.09366   11.75854
       O    -5.01556   -9.01198   12.68794
      H1    -5.79633   -9.16693   13.20586

