60
frame 1 | Written by MDAnalysis XYZWriter (release 2.4.3)
       H    -9.15076   -4.58448  -14.24839
       O    -8.28545   -4.77600  -14.58517
      H1    -7.63218   -4.58859  -13.89239
       H   -13.63007    1.71227  -17.17681
       O   -14.40668    2.17072  -17.56706
      H1   -14.79554    1.46887  -18.12544
       H    -9.25825    1.16522  -12.12216
       O    -8.44378    1.32105  -11.63060
      H1    -7.74743    1.00682  -12.20877
       H   -10.47096    0.81572  -10.51212
       O   -11.08759    0.68410  -11.24618
      H1   -11.78188    1.28369  -11.03547
       H    -6.93527    0.24366  -14.25421
       O    -6.65727    0.41482  -13.33833
      H1    -6.24650   -0.43500  -13.01832
       H   -10.52533   -0.67255  -15.09824
       O   -11.05432   -0.79277  -15.90161
      H1   -11.68130   -0.06339  -15.89243
       H   -10.95705   -0.93221  -10.65758
       O   -10.70864   -1.87270  -10.50454
      H1   -10.92209   -1.99516   -9.57112
       H   -12.04661   -3.44941  -15.27174
       O   -12.30628   -3.14370  -16.13693
      H1   -11.86206   -2.27547  -16.18826
       H    -7.80352    1.34323  -16.08802
       O    -7.90997    2.29514  -16.02170
      H1    -7.01817    2.64989  -16.14937
       H    -7.75352   -1.30816  -16.05602
       O    -7.40921   -0.45017  -15.86598
      H1    -6.87872   -0.20443  -16.67761
       H   -10.37779   -1.08123  -19.22124
       O   -10.82552   -0.43335  -18.64897
      H1   -10.28947   -0.48850  -17.83224
       H   -12.02025   -2.17588  -12.21642
       O   -12.88528   -1.74366  -12.32382
      H1   -13.28835   -2.12880  -13.11294
       H    -8.15354   -3.62629  -15.87556
       O    -8.11789   -3.22680  -16.75484
      H1    -7.30720   -3.55793  -17.13687
       H   -13.08689    0.49668  -12.72244
       O   -13.68540    1.00921  -12.15019
      H1   -13.98612    1.65360  -12.79529
       H   -10.48228    0.20994  -13.14441
       O    -9.90911   -0.46214  -13.47577
      H1    -9.16942   -0.47301  -12.85753
       H   -14.84782   -3.75258  -13.86945
       O   -14.36760   -2.95274  -14.09845
      H1   -14.00491   -3.14821  -14.97836
       H   -13.47336    1.70296  -15.07779
       O   -12.59670    1.35635  -15.25030
      H1   -11.98612    2.03407  -14.93514
       H   -10.67718   -2.55590  -13.93879
       O   -10.73497   -3.52227  -13.89736
      H1   -10.46358   -3.76949  -13.01116
       H   -10.10958    3.28660  -14.02811
       O   -10.03103    2.33810  -14.17464
      H1    -9.14033    2.20869  -14.51797
       H   -10.75784   -4.61104  -18.01495
       O    -9.83318   -4.88895  -17.97511
      H1    -9.38593   -4.23332  -17.44857

