60
frame 4 | Written by MDAnalysis XYZWriter (release 2.4.3)
       H    11.07302    8.71396   17.88542
       O    10.19500    8.34215   18.13154
      H1     9.93974    9.09045   18.80869
       H    10.55733   13.15013   16.53551
       O    10.08874   12.96330   17.29261
      H1    10.12758   13.79967   17.82232
       H    12.62146   13.73560   15.72051
       O    13.36914   13.44074   16.29087
      H1    13.06251   13.28132   17.17359
       H    14.51238   19.11640   19.05035
       O    14.07634   18.29717   18.71255
      H1    13.44724   18.56174   18.09547
       H    19.98297    8.67440   17.80933
       O    19.05400    8.52751   17.52055
      H1    18.46093    8.94015   18.23473
       H    11.03996   14.89590   14.16541
       O    11.11319   13.95855   14.51905
      H1    11.57239   13.46693   13.83664
       H    14.74893   15.28263   17.63345
       O    15.35428   15.48293   18.41006
      H1    14.95988   16.11375   19.01173
       H    15.84468    7.63999   19.44878
       O    15.74188    6.70563   19.28401
      H1    16.49370    6.24001   19.00535
       H    11.01628   15.45982   19.34910
       O    10.11695   15.14715   19.07608
      H1     9.51057   15.86840   19.36025
       H    16.95956   17.05541   16.88273
       O    16.51056   17.87605   17.09277
      H1    15.61889   17.57764   17.04318
       H    14.55925   10.65998   14.20158
       O    14.23296    9.79061   13.89923
      H1    13.58535   10.03065   13.20892
       H    17.33168   14.24384   15.76232
       O    17.52304   14.97151   16.41026
      H1    16.77486   14.97695   17.01563
       H    12.98970   12.37952   19.62123
       O    13.30340   12.50966   18.72079
      H1    14.25881   12.53462   18.70293
       H    17.13885   12.05331   18.40241
       O    16.19777   11.87397   18.25495
      H1    16.12681   11.89841   17.29757
       H    19.13972   14.17645   17.74583
       O    19.27280   13.36037   18.26070
      H1    19.96612   13.52863   18.86453
       H    14.25534   16.41394   15.12655
       O    13.98712   16.72802   16.03287
      H1    13.28626   17.35201   15.80809
       H    15.93865   12.54851   14.82603
       O    15.25836   12.02188   15.23695
      H1    14.59231   12.67012   15.58122
       H    14.68636    8.05210   15.21021
       O    13.94029    7.75451   15.72390
      H1    13.62218    8.34889   16.36374
       H    16.48743   10.03998   18.66762
       O    16.98112    9.35647   19.15573
      H1    17.47387    9.88925   19.83655
       H    13.11961   10.27040   18.39439
       O    12.68994    9.46686   18.07122
      H1    12.86322    8.85235   18.84349

