60
frame 2 | Written by MDAnalysis XYZWriter (release 2.4.3)
       H    15.84517   13.68820    7.99606
       O    15.97259   13.04390    7.28979
      H1    16.62791   12.43929    7.66869
       H    14.62156   13.64037   10.74182
       O    15.17208   12.83411   10.75770
      H1    14.64406   12.19644   11.22230
       H    17.98262   13.27211    5.08102
       O    17.14224   12.86124    4.89795
      H1    16.76670   12.85068    5.77417
       H    19.56238   13.74171    8.59476
       O    18.62233   13.78253    8.70869
      H1    18.34923   14.63489    8.35902
       H    14.99991   16.06738    7.86554
       O    15.32062   15.57174    8.63194
      H1    14.65389   15.77563    9.28169
       H    14.96712   17.17443    2.75079
       O    15.34672   17.68441    3.48150
      H1    15.13485   17.16599    4.27000
       H    13.76381   15.54707   11.53646
       O    13.53533   15.92881   10.66444
      H1    12.68023   15.53400   10.48222
       H    15.35351   15.19195   14.06225
       O    15.28593   15.96582   13.46355
      H1    15.39061   16.73204   14.07081
       H    14.81135   17.49104    6.46485
       O    14.39288   16.65324    6.22478
      H1    13.43668   16.85585    6.26625
       H    12.65575   18.93540   11.78488
       O    12.64402   18.01786   12.08995
      H1    12.95123   17.48031   11.34269
       H    11.45316   14.25873    5.12814
       O    11.73761   14.45020    6.01966
      H1    12.28182   13.71609    6.26292
       H    11.66505   18.64270    6.34361
       O    11.96369   17.91156    5.77989
      H1    11.25066   17.27185    5.90910
       H    17.41137   16.41538   12.11269
       O    17.58610   17.18392   12.68127
      H1    16.69054   17.49882   12.90903
       H    13.16590   11.42049    6.94382
       O    13.42905   12.30514    6.62772
      H1    14.27331   12.47891    7.05669
       H    15.92056   14.16362    4.70860
       O    15.15787   14.53818    4.21982
      H1    14.72500   15.10836    4.85151
       H    17.60844   11.41260    9.13995
       O    16.80585   11.14603    9.57879
      H1    16.43747   12.00438    9.84006
       H    18.24953   16.91116    7.45395
       O    17.77847   16.07307    7.48882
      H1    16.94230   16.39182    7.83904
       H    17.04996   13.59336    1.98556
       O    17.38705   14.48393    2.16146
      H1    16.76856   14.76315    2.84436
       H    16.76702   18.72492    3.43097
       O    17.50632   19.09277    2.94078
      H1    17.82413   18.30762    2.51984
       H    17.95452   14.09252   10.28834
       O    17.65611   14.16997   11.20281
      H1    16.80467   13.70785   11.21662

