60
frame 2 | Written by MDAnalysis XYZWriter (release 2.4.3)
       H   -14.07582   -5.80905   -2.66395
       O   -13.57467   -5.00669   -2.72468
      H1   -14.24437   -4.34634   -2.91374
       H   -15.00927   -5.94249   -0.20870
       O   -15.10394   -5.02512   -0.48649
      H1   -14.51375   -4.94493   -1.24976
       H   -18.25260   -7.80518   -0.00697
       O   -17.92826   -8.73634   -0.11118
      H1   -17.35507   -8.75412   -0.90119
       H   -12.95217   -5.07274    4.14571
       O   -13.05919   -5.66770    4.88326
      H1   -14.01471   -5.82002    4.96384
       H   -12.52445  -11.77790    2.05189
       O   -13.20371  -11.08700    2.01630
      H1   -13.48508  -10.86279    2.91991
       H   -13.63054   -7.69158    0.29664
       O   -14.50309   -7.53400    0.73976
      H1   -14.22724   -7.51734    1.68797
       H   -14.53344  -11.08660   -1.28915
       O   -14.56461  -11.99419   -1.65346
      H1   -15.48806  -12.14542   -1.58230
       H   -11.74700   -9.75248    0.43622
       O   -11.59186   -8.91337    0.83443
      H1   -11.78220   -9.11525    1.77504
       H   -12.06624   -8.23024    3.95544
       O   -12.50633   -8.07420    3.10149
      H1   -13.37578   -8.47531    3.25066
       H   -10.91866   -6.24815    0.19860
       O   -10.51331   -6.04110   -0.66456
      H1   -10.96451   -6.66193   -1.25877
       H   -17.25017   -8.42369    1.65560
       O   -16.99770   -7.91568    2.45556
      H1   -17.56553   -8.31004    3.13914
       H   -14.78844   -3.97371    1.45634
       O   -14.26616   -3.36426    2.01911
      H1   -14.84602   -2.98423    2.65294
       H   -14.35863  -10.40422    0.73747
       O   -14.96712  -10.11875    0.06101
      H1   -14.87878   -9.13780    0.10909
       H   -17.84608   -5.50998   -2.00359
       O   -17.70269   -5.72764   -1.06690
      H1   -16.76063   -5.48964   -0.94355
       H   -15.75819   -3.31741   -0.12353
       O   -15.76875   -2.34885   -0.31187
      H1   -14.89290   -2.02162   -0.02094
       H   -15.30210   -8.28767   -2.85940
       O   -14.64268   -7.57714   -2.90234
      H1   -14.33725   -7.69295   -3.79254
       H   -12.65401   -8.14980   -2.52698
       O   -11.71024   -8.23100   -2.41761
      H1   -11.30274   -8.28519   -3.30130
       H   -16.18893  -11.35273    0.80453
       O   -16.48707  -12.08629    1.38536
      H1   -16.51769  -11.68856    2.27573
       H   -15.75377   -9.18447    3.16910
       O   -14.85656   -9.38234    3.45736
      H1   -14.91226   -9.36890    4.42520
       H   -16.76821   -6.13828    2.79496
       O   -16.78993   -5.18532    2.94475
      H1   -16.40326   -5.02104    3.80422

