60
frame 1 | Written by MDAnalysis XYZWriter (release 2.4.3)
       H   -10.44899   -5.34197    1.07515
       O   -10.94818   -5.03765    1.81514
      H1   -10.31999   -5.24325    2.53992
       H    -6.24873   -7.25984    3.80702
       O    -7.10620   -6.95720    4.16294
      H1    -7.76312   -7.41099    3.64251
       H    -8.60137  -10.74861    2.05822
       O    -8.25208  -11.59859    2.33241
      H1    -7.64514  -11.84621    1.62650
       H    -8.00937   -7.77586    5.56523
       O    -8.66900   -8.28469    6.07628
      H1    -9.19706   -7.57867    6.48634
       H    -8.07719   -4.52080    2.31406
       O    -7.42875   -3.82828    2.09120
      H1    -7.31504   -3.38364    2.93840
       H    -9.80424   -4.81806    4.86607
       O    -9.38937   -5.29968    4.14700
      H1    -8.50794   -5.36802    4.50778
       H    -4.78647   -9.85964    1.11258
       O    -4.51108  -10.33841    0.31675
      H1    -3.68819  -10.80528    0.54246
       H    -5.82193   -9.01777    2.92796
       O    -5.08056   -8.65427    2.44084
      H1    -4.43303   -8.43406    3.10196
       H    -7.44416   -8.69867   -0.47856
       O    -7.52649   -8.01205    0.20385
      H1    -6.77842   -7.44054   -0.06458
       H    -9.79703  -12.40218    1.57518
       O   -10.59547  -12.92843    1.49536
      H1   -10.39029  -13.40659    0.69683
       H   -10.86548  -10.17523   -2.35380
       O   -10.46626   -9.93762   -1.49851
      H1   -10.04269  -10.76278   -1.20789
       H   -11.26686   -8.42287    0.35912
       O   -11.44130   -8.73007    1.22680
      H1   -11.65648   -9.67855    1.13241
       H   -12.38206   -6.27128    4.53015
       O   -12.32099   -7.08190    5.04160
      H1   -11.73785   -7.66479    4.56144
       H    -8.86907   -7.03441   -0.25864
       O    -9.40077   -6.22147   -0.19242
      H1   -10.22093   -6.51710   -0.62778
       H    -8.30904  -10.27914    5.31434
       O    -8.92958  -11.02826    5.35675
      H1    -8.39616  -11.78940    5.09496
       H   -11.55442  -10.07192    4.61293
       O   -11.17091   -9.27692    4.20842
      H1   -10.24140   -9.48518    4.27842
       H    -5.60920  -11.82429    0.71358
       O    -6.14195  -12.63093    0.85949
      H1    -6.11152  -13.07890   -0.01512
       H    -8.36921   -8.51299    1.86358
       O    -8.83442   -8.65324    2.70759
      H1    -9.76639   -8.91441    2.47502
       H    -8.66983   -9.61747   -2.29216
       O    -7.75080   -9.59813   -2.04450
      H1    -7.37372   -8.95906   -2.65542
       H    -6.77716  -11.08009    3.38778
       O    -5.99790  -10.83920    3.93453
      H1    -5.21970  -11.07792    3.42513

