60
frame 2 | Written by MDAnalysis XYZWriter (release 2.4.3)
       H    -2.04487  -15.76438   -8.25230
       O    -1.83247  -16.69654   -8.51322
      H1    -2.59377  -16.90737   -9.04899
       H    -5.27847  -16.25034   -9.51809
       O    -6.04594  -15.67300   -9.46256
      H1    -5.74866  -14.84265   -9.10194
       H    -0.25869  -16.85826  -10.41108
       O    -0.60148  -17.38872  -11.14498
      H1    -1.25473  -17.96094  -10.71940
       H    -7.02837  -17.05228   -8.76145
       O    -7.39907  -17.86935   -8.43539
      H1    -7.11418  -18.49937   -9.09166
       H    -4.63504  -15.64147  -15.51188
       O    -3.81785  -16.08814  -15.81311
      H1    -3.17510  -15.38084  -15.89517
       H    -2.04429  -14.08815  -10.07645
       O    -2.22027  -14.36552  -10.97962
      H1    -1.76124  -15.20322  -11.02098
       H    -9.55184  -16.18922  -11.76063
       O    -9.78696  -15.56985  -12.46637
      H1    -9.09692  -14.90296  -12.39175
       H    -5.19508  -16.76637  -12.08387
       O    -5.79930  -15.97823  -12.10009
      H1    -5.84135  -15.75254  -11.14924
       H    -3.76688  -14.09742  -12.00435
       O    -4.25705  -13.65327  -12.74779
      H1    -5.06459  -14.14989  -12.82914
       H    -2.51847  -12.14494  -14.85567
       O    -2.84684  -13.00596  -15.04571
      H1    -3.10718  -13.28183  -14.16927
       H    -9.11596  -17.48427   -9.55921
       O    -9.68980  -17.54333  -10.32825
      H1   -10.56157  -17.36301   -9.98865
       H    -7.04892  -16.24580  -13.33736
       O    -7.60022  -16.67883  -14.02213
      H1    -8.41727  -16.18294  -13.97654
       H    -4.55023  -17.63997   -8.01075
       O    -4.47934  -17.75795   -8.99275
      H1    -4.50168  -18.73426   -9.07562
       H    -7.07576  -13.65667  -13.86245
       O    -7.78409  -13.72362  -13.22106
      H1    -7.62368  -13.00982  -12.59844
       H    -6.76246  -15.50810  -15.80410
       O    -6.11764  -14.79018  -15.54032
      H1    -6.26105  -14.15779  -16.27634
       H    -3.15747  -17.89042  -12.94237
       O    -4.10982  -17.94091  -12.85625
      H1    -4.25379  -18.76623  -12.38758
       H    -3.41244  -19.05752  -17.39306
       O    -4.18408  -18.94194  -16.83749
      H1    -4.02600  -18.09787  -16.41912
       H    -3.70336  -11.97002  -11.81054
       O    -3.30117  -11.44372  -11.11193
      H1    -3.33819  -10.52119  -11.47055
       H    -2.43918  -17.25687  -14.92199
       O    -1.61321  -17.25331  -14.43536
      H1    -1.21754  -18.10784  -14.64260
       H    -4.77769  -13.75430   -7.21207
       O    -4.53182  -13.54547   -8.12308
      H1    -4.34390  -12.59165   -8.14839

