60
frame 2 | Written by MDAnalysis XYZWriter (release 2.4.3)
       H     9.69872   -1.22398  -18.51572
       O     9.81089   -1.69501  -17.67754
      H1    10.43811   -1.13689  -17.19234
       H    11.28711    1.85548  -12.59602
       O    11.82076    2.61668  -12.82537
      H1    12.60431    2.62515  -12.28118
       H    12.17878    1.17976  -17.95431
       O    12.62999    1.97425  -18.20609
      H1    12.53064    2.57703  -17.45862
       H    11.91904    7.61623  -14.80476
       O    12.02806    7.75590  -13.86674
      H1    11.76883    6.88613  -13.52909
       H    10.83948    0.78786  -15.98937
       O    11.31093    0.04248  -16.39188
      H1    11.73340   -0.42512  -15.68563
       H    16.22101    5.94936  -13.83321
       O    16.48988    5.61136  -14.68990
      H1    17.41694    5.43474  -14.57428
       H     7.43029    0.86292  -17.81778
       O     6.72188    0.18341  -17.75600
      H1     7.16297   -0.52730  -17.23699
       H     8.46777    3.82613  -17.82074
       O     8.57013    2.87370  -17.89355
      H1     8.91016    2.69128  -18.80876
       H    11.19223    5.55424  -11.94164
       O    12.10832    5.66453  -11.95402
      H1    12.44056    4.86583  -12.36442
       H    14.97051    3.20214  -16.72697
       O    14.94226    3.44893  -15.79910
      H1    15.77048    3.91753  -15.68759
       H    16.69651   -1.42248  -18.15220
       O    16.39845   -1.22339  -17.25490
      H1    15.77596   -1.93298  -17.07629
       H    13.83483   -0.26738  -14.92550
       O    13.39348   -1.13241  -14.93083
      H1    13.30231   -1.38237  -14.02364
       H    16.39964    1.11409  -12.05029
       O    16.36111    1.58645  -12.87764
      H1    16.44441    0.90039  -13.57269
       H    14.25815    7.57538  -18.68471
       O    14.35887    8.41061  -18.22623
      H1    15.14212    8.85268  -18.61125
       H    17.35634    2.52597  -17.34977
       O    16.85527    2.04215  -18.03719
      H1    17.57271    1.48526  -18.39040
       H     7.42114    3.03011  -14.36718
       O     8.04671    2.41952  -13.93870
      H1     7.66055    2.26940  -13.04857
       H     9.86395    2.95737  -16.61834
       O    10.29735    2.76385  -15.78516
      H1     9.60831    2.76149  -15.12427
       H    13.23796    3.95731  -16.01499
       O    12.50603    4.32640  -16.58396
      H1    11.76453    3.77704  -16.22292
       H     9.53153    5.44574  -17.66129
       O     8.72300    5.32546  -17.16486
      H1     8.99017    5.51196  -16.28150
       H    15.39216    1.68504  -15.55348
       O    15.45270    0.74525  -15.27881
      H1    15.89996    0.35977  -16.02940

