60
frame 2 | Written by MDAnalysis XYZWriter (release 2.4.3)
       H   -12.15088    6.10117   -5.12936
       O   -12.67082    6.88339   -4.89585
      H1   -12.16880    7.66819   -5.13611
       H   -12.93531   12.26554   -6.27826
       O   -13.50759   12.67768   -5.62049
      H1   -12.96705   12.57929   -4.81929
       H   -12.87091    6.23950   -0.98151
       O   -12.17366    5.91145   -0.41141
      H1   -11.42179    5.84746   -1.03933
       H   -18.65813    8.92001    0.78660
       O   -18.04589    8.14959    0.74618
      H1   -17.33848    8.44311    0.16149
       H   -17.52903    5.75375   -3.38895
       O   -17.23679    6.26333   -4.15293
      H1   -17.64338    7.11815   -3.91238
       H   -14.92291   11.00095   -5.36687
       O   -15.08386   10.09619   -5.70186
      H1   -15.95167   10.17761   -6.15042
       H   -16.52055    9.78784   -1.64418
       O   -16.28288   10.35372   -0.91461
      H1   -15.45915   10.78244   -1.19393
       H   -18.55630    4.17611   -6.17689
       O   -18.84044    5.08925   -6.31593
      H1   -18.43592    5.54350   -5.57484
       H   -14.46245    6.88328   -5.76588
       O   -15.36368    6.66821   -6.06084
      H1   -15.74390    6.27802   -5.26803
       H   -17.72001   12.92020   -5.46079
       O   -18.07593   12.08281   -5.80299
      H1   -17.81263   12.05476   -6.72650
       H   -13.80376    9.73775   -7.03953
       O   -13.31614    9.40642   -7.78154
      H1   -12.47306    9.08495   -7.38420
       H   -11.73277   12.39417   -3.02911
       O   -12.36689   11.71778   -3.36805
      H1   -13.12147   11.85154   -2.77346
       H   -15.01756   12.96062   -2.12615
       O   -14.48871   12.30099   -1.60673
      H1   -14.43061   12.74172   -0.74225
       H   -16.30767    7.87840   -3.26778
       O   -16.32634    8.84207   -3.19675
      H1   -15.87096    9.06299   -4.00634
       H   -13.56918    6.36541   -3.27455
       O   -13.99019    6.12233   -2.46684
      H1   -14.36020    6.96451   -2.18955
       H   -15.12397    7.88609    0.32316
       O   -15.64427    7.80072   -0.48605
      H1   -15.62688    8.68428   -0.82217
       H   -15.41060    7.11196   -8.57364
       O   -14.72795    7.54370   -9.13992
      H1   -14.23340    8.15780   -8.55485
       H   -17.88526   12.29756   -2.05471
       O   -17.82965   13.06340   -1.47159
      H1   -17.33592   12.65916   -0.72672
       H   -16.73152    7.70051   -6.71810
       O   -17.40249    8.36188   -6.91991
      H1   -17.34021    8.44753   -7.88052
       H   -12.27460    9.79520   -2.68745
       O   -11.89703    8.99735   -2.29870
      H1   -11.78654    9.17344   -1.33571

