60
frame 5 | Written by MDAnalysis XYZWriter (release 2.4.3)
       H     8.05646   10.15336    3.30098
       O     8.86716   10.12746    2.77697
      H1     9.14521   11.08355    2.76798
       H     9.76098    6.80326    4.99093
       O     9.28601    5.99029    5.15647
      H1     9.95708    5.23128    5.04811
       H     8.56931   10.61854    0.94588
       O     8.48353   10.91423    0.03869
      H1     9.33976   11.39415   -0.15448
       H    12.16955    7.47125    6.73905
       O    12.53982    8.21027    6.25265
      H1    11.75276    8.76617    6.04985
       H     7.28323    6.27644    4.10419
       O     6.71783    5.67241    3.64451
      H1     7.16490    5.40280    2.83214
       H     8.97265    7.05149    7.05568
       O     8.35895    7.43209    7.69738
      H1     8.45373    8.37726    7.60451
       H     9.72313    9.58981    5.48731
       O     9.89050    8.83006    4.92445
      H1     9.83366    9.18667    3.99883
       H    10.20858   13.88058    6.19956
       O    10.42560   13.16858    5.60339
      H1    11.38810   12.98153    5.61805
       H    13.49379    6.82883    3.08283
       O    13.43419    6.58535    4.00682
      H1    12.91127    7.28789    4.43406
       H    14.02403   13.45117    5.70142
       O    13.26235   12.85772    5.83865
      H1    13.48732   11.97502    5.64216
       H     6.15883   10.87207    3.28894
       O     6.29486   10.09546    3.91645
      H1     5.56998    9.44950    3.73046
       H    13.58367    9.65919    5.81145
       O    14.17627   10.32402    5.45055
      H1    15.01060    9.79737    5.33226
       H     5.83073   10.76183    5.68719
       O     5.65469   11.27208    6.47628
      H1     6.26947   10.97482    7.16758
       H    11.72359    6.79045    9.07960
       O    11.58520    6.36649    8.21619
      H1    11.39417    5.41526    8.32082
       H    10.72858   11.06006    8.01569
       O    10.46274   11.05135    7.05522
      H1    10.35275   11.96575    6.76820
       H     8.74833   10.80401    7.81302
       O     7.94901   10.29276    8.06511
      H1     7.90863   10.42198    9.02499
       H     9.51026    6.88456    1.88752
       O    10.45741    6.78776    2.06325
      H1    11.11076    7.29698    1.61610
       H    13.07507   10.14895    4.00562
       O    12.35222   10.19112    3.40927
      H1    11.61413    9.84944    3.88759
       H    12.78238   13.62967    2.18152
       O    12.43303   12.75016    2.09494
      H1    12.76585   12.12353    2.76132
       H     9.96136   13.04094    3.77641
       O     9.97527   12.75887    2.86111
      H1    10.92485   12.67027    2.60512

