60
frame 2 | Written by MDAnalysis XYZWriter (release 2.4.3)
       H     6.25304   10.63472   -2.29128
       O     7.20059   10.45126   -2.25281
      H1     7.36079   10.27673   -1.31880
       H    11.00179   12.73848   -2.62689
       O    10.16882   12.26712   -2.67202
      H1     9.57987   12.73335   -2.03921
       H     2.97643   13.72635   -2.90693
       O     3.49774   13.14187   -2.32649
      H1     4.37705   13.20532   -2.68627
       H     7.25976    8.87963   -4.06320
       O     7.67487    8.02383   -3.92921
      H1     8.53116    8.24918   -3.55586
       H     7.51369    7.93024   -0.76659
       O     7.22467    7.20093   -1.40279
      H1     7.27413    7.68219   -2.25406
       H    11.09291   11.08908   -8.15588
       O    10.70243   11.59737   -7.42925
      H1     9.80023   11.26773   -7.45275
       H     8.06711   11.36805   -5.98990
       O     8.15952   11.03335   -6.92024
      H1     8.33194   10.07142   -6.90329
       H     6.39509   13.39276   -0.46331
       O     6.09622   13.25280    0.44595
      H1     6.41557   13.99618    0.93762
       H     4.53274   12.56514   -5.09141
       O     5.16793   12.84155   -4.40625
      H1     5.95662   12.93355   -4.93677
       H     8.83579   14.55699   -0.48288
       O     8.50718   13.89572   -1.10088
      H1     8.39364   14.41041   -1.91107
       H     6.47514   10.17978   -7.56996
       O     5.56467    9.93683   -7.83023
      H1     5.67317    9.28918   -8.50324
       H    10.40749   13.02907   -4.39793
       O    10.28579   13.45024   -5.25292
      H1    10.63970   12.79403   -5.83945
       H     5.89004    9.40203   -5.77262
       O     6.03575    9.89994   -4.96967
      H1     5.19894    9.93659   -4.50431
       H     6.13806   14.74516   -7.42240
       O     6.26711   14.19940   -6.62798
      H1     7.22974   14.06875   -6.66053
       H     8.75675   12.18274   -4.23955
       O     7.83535   12.17009   -4.46528
      H1     7.45909   11.68322   -3.71742
       H    10.14653   11.79424    0.50982
       O    10.40980   11.13762   -0.14404
      H1    10.22075   11.57964   -0.98679
       H     7.01552   15.14407   -3.47320
       O     7.87253   14.75738   -3.69812
      H1     7.63771   13.87441   -4.02215
       H     8.13113    7.95245   -7.20078
       O     8.66019    8.42729   -6.56964
      H1     8.19822    8.13681   -5.77600
       H     3.85458    9.86940   -1.38680
       O     4.42453   10.67952   -1.41400
      H1     3.84796   11.29917   -1.92655
       H    10.64650    9.12034   -2.16051
       O    10.18010    8.30958   -2.40561
      H1     9.90247    7.97142   -1.54790

