60
frame 4 | Written by MDAnalysis XYZWriter (release 2.4.3)
       H    16.46722    9.18091   -6.84237
       O    15.95997    9.92076   -7.18871
      H1    15.12817   10.06313   -6.76317
       H    16.97818   14.82564   -4.98903
       O    16.54029   15.58344   -5.44213
      H1    16.05004   15.07757   -6.05945
       H    18.67162   16.32831   -8.41406
       O    17.75427   16.23028   -8.23878
      H1    17.66418   16.39390   -7.27217
       H    14.17513   11.72641   -4.21440
       O    14.53905   12.31736   -3.57067
      H1    13.94834   13.07916   -3.50578
       H    18.24300   15.91936   -3.92316
       O    19.06813   16.25763   -3.51436
      H1    18.75819   17.07565   -3.10466
       H    15.45613   13.20774   -9.07307
       O    15.13501   12.40324   -8.67798
      H1    15.87008   12.05288   -8.16266
       H    16.37122   10.45767   -3.19374
       O    17.13833   10.14739   -2.66128
      H1    16.66035    9.90430   -1.88640
       H    14.49758   10.82328   -0.15379
       O    15.25150   11.19335    0.28678
      H1    14.85516   11.50841    1.07816
       H    18.98338   11.89046   -7.15600
       O    18.69044   11.18335   -7.80824
      H1    17.92819   10.79391   -7.31930
       H    14.77352   14.08302   -1.40420
       O    13.83522   14.37695   -1.61107
      H1    13.69887   15.25147   -1.35775
       H    19.12566   12.56517   -9.14938
       O    19.39410   12.38161  -10.07279
      H1    19.85154   13.21011  -10.37836
       H    18.18873   12.95207   -4.34580
       O    17.35788   13.37185   -4.16623
      H1    17.12248   13.51440   -3.26158
       H    14.69539   13.06505   -5.49405
       O    14.47285   13.63872   -6.24029
      H1    14.84857   13.22138   -7.02657
       H    12.68334   10.31414   -6.46393
       O    13.47745   10.41735   -5.96014
      H1    13.50883    9.56631   -5.42427
       H    19.80844    8.39542   -3.88266
       O    18.86730    8.29854   -3.85664
      H1    18.56015    8.97909   -3.25608
       H    13.62090    9.53013   -1.98293
       O    14.58381    9.45217   -1.85826
      H1    14.73402    8.74792   -1.25245
       H    15.92413   12.56021   -2.36803
       O    16.24481   13.18553   -1.64150
      H1    16.34540   12.53333   -0.89651
       H    16.42093   18.66743   -3.90439
       O    17.22666   19.01135   -3.45427
      H1    17.72905   19.39976   -4.15620
       H    14.77203   17.87775   -5.03293
       O    14.94156   17.35374   -4.18203
      H1    15.52307   16.67926   -4.58673
       H    12.81328   14.32218   -6.57265
       O    11.91663   14.70797   -6.60410
      H1    11.64938   14.91566   -5.68034

