60
frame 4 | Written by MDAnalysis XYZWriter (release 2.4.3)
       H   -19.36456    0.50327   -4.63987
       O   -18.68007    0.86028   -5.26031
      H1   -17.82152    0.79002   -4.76911
       H   -16.87150   -5.28290   -2.82425
       O   -17.62044   -5.71148   -2.42543
      H1   -18.41013   -5.21284   -2.75315
       H   -18.02500   -4.36959   -1.07161
       O   -18.57578   -4.14359   -0.32682
      H1   -18.88930   -3.24702   -0.61995
       H   -14.52538   -4.95430   -3.56494
       O   -15.41198   -4.68320   -3.59388
      H1   -15.62320   -4.97464   -4.54015
       H   -13.34013   -3.66357   -0.47276
       O   -12.40169   -3.54179   -0.62242
      H1   -11.95947   -3.47549    0.21162
       H   -14.96605   -2.75451   -4.37440
       O   -14.96365   -2.17891   -5.11398
      H1   -14.04320   -2.26096   -5.40608
       H   -13.85958   -0.58884    2.79172
       O   -13.82251   -1.41053    2.27947
      H1   -14.30028   -2.12066    2.70810
       H   -16.13939   -1.28863   -0.02641
       O   -16.76140   -1.09256    0.64261
      H1   -16.26730   -1.21887    1.44789
       H   -15.66110    3.23575   -3.83325
       O   -15.85099    2.78367   -3.04474
      H1   -14.98027    2.83433   -2.60332
       H   -18.30333   -2.68957   -5.65319
       O   -17.95814   -2.83968   -4.75202
      H1   -17.08423   -2.45145   -4.72249
       H   -14.42106   -4.49342    2.71635
       O   -15.15818   -4.06371    2.31909
      H1   -15.08442   -4.19694    1.36883
       H   -12.26780   -1.32647   -4.37922
       O   -12.19455   -1.41719   -5.35202
      H1   -12.55984   -0.63732   -5.70883
       H   -11.56494   -4.26694   -3.55591
       O   -11.12828   -4.47874   -2.72655
      H1   -11.69818   -4.07484   -1.99922
       H   -19.28591   -1.02129   -1.21005
       O   -19.13031   -1.59124   -0.47745
      H1   -18.29128   -1.34170   -0.06718
       H   -12.82318    1.51878   -1.13813
       O   -13.33635    1.70950   -0.30688
      H1   -12.67399    1.46744    0.34881
       H   -14.69222   -1.50533   -2.30378
       O   -15.52781   -1.49101   -1.84398
      H1   -16.00157   -0.91032   -2.41288
       H   -12.27754   -0.38479   -2.24508
       O   -12.84570   -1.23342   -2.31569
      H1   -12.59973   -1.75304   -1.50930
       H   -16.33376    0.77125    0.72917
       O   -16.15475    1.69754    0.57055
      H1   -15.32176    1.81381    0.15808
       H   -15.87962    1.17882   -3.70751
       O   -16.29610    0.28373   -3.92911
      H1   -15.72331   -0.13526   -4.57176
       H   -15.31922   -4.75040   -1.54057
       O   -15.28987   -4.05758   -0.86831
      H1   -15.52218   -3.28663   -1.44864

