60
frame 2 | Written by MDAnalysis XYZWriter (release 2.4.3)
       H    17.87817    9.08489  -10.79319
       O    17.83959    9.01104  -11.74760
      H1    16.96520    8.71338  -11.88198
       H    18.58443   11.68423  -13.27318
       O    18.11833   11.78139  -12.42671
      H1    17.97730   10.87626  -12.14103
       H    13.21609   12.87240   -8.43465
       O    12.97027   12.18622   -9.05722
      H1    13.54815   11.46471   -8.80902
       H    15.34287   13.47356  -12.58359
       O    15.96279   13.29389  -11.90642
      H1    16.55280   12.63275  -12.32383
       H    11.91904    7.61623  -14.80476
       O    12.02806    7.75590  -13.86674
      H1    11.76883    6.88613  -13.52909
       H     9.76238    9.47717  -13.75284
       O     8.82219    9.29483  -13.85995
      H1     8.53993   10.01529  -14.45610
       H    11.26627   13.73754  -11.48688
       O    10.74163   12.98868  -11.80269
      H1    11.36512   12.25284  -11.88905
       H    12.16366   11.88248  -16.70169
       O    11.20678   11.71217  -16.72313
      H1    11.01847   11.65550  -17.65830
       H    11.48287    9.31956  -14.25624
       O    11.55657   10.26665  -14.13283
      H1    11.29152   10.68010  -14.97629
       H    16.53131    6.44153  -11.21960
       O    16.24288    6.77522  -12.09044
      H1    15.34370    7.16116  -11.88161
       H    10.44348   14.37825  -14.54151
       O    10.07541   13.53279  -14.28952
      H1    10.48966   13.38596  -13.41580
       H    15.48195    8.02967  -16.79428
       O    16.37557    7.85797  -16.44710
      H1    16.27815    7.13508  -15.81386
       H    13.03945   11.64973  -10.75206
       O    13.12148   11.55004  -11.69768
      H1    13.75992   12.23636  -11.94833
       H    14.41137   12.87134  -17.08403
       O    14.33305   11.90151  -16.95969
      H1    14.71703   11.70855  -16.08182
       H    15.37178   10.71883  -14.27697
       O    15.51902   11.61693  -14.61542
      H1    16.33056   11.56818  -15.12538
       H    13.52133   10.13277  -13.37628
       O    14.15375    9.43411  -13.51666
      H1    13.52736    8.75256  -13.87818
       H     9.98247    9.64190   -9.86829
       O    10.82577    9.48149   -9.42175
      H1    11.41166    9.51304  -10.17768
       H    13.95533    8.53842  -11.98072
       O    13.87243    7.85331  -11.29545
      H1    13.20407    7.26346  -11.66505
       H    13.85589   13.28037  -14.24438
       O    13.60781   13.91815  -13.53727
      H1    13.46381   14.74537  -13.97681
       H    11.52302    8.72285  -17.84561
       O    11.11744    8.76435  -16.96871
      H1    10.94420    9.69439  -16.82323

