60
frame 2 | Written by MDAnalysis XYZWriter (release 2.4.3)
       H    12.97815    4.62671   -6.81435
       O    12.15957    4.73535   -7.21709
      H1    11.53023    4.20127   -6.69507
       H    14.75791    4.19765  -11.26059
       O    14.14468    3.63908  -11.74138
      H1    14.73689    2.90207  -11.92808
       H    11.28711    1.85548  -12.59602
       O    11.82076    2.61668  -12.82537
      H1    12.60431    2.62515  -12.28118
       H     6.14702    3.42763   -8.45664
       O     5.58205    3.77172   -9.15889
      H1     4.71354    3.37700   -8.95384
       H     6.85244    2.70238  -10.48102
       O     7.31212    2.05949  -11.02504
      H1     8.23946    2.34315  -10.91295
       H    10.64572    2.68672   -4.82999
       O    10.34667    2.94867   -5.71310
      H1    10.41815    2.17101   -6.25464
       H     8.07047    1.75430   -8.07775
       O     7.62650    2.53082   -7.66246
      H1     8.34353    3.14471   -7.46228
       H     6.23334    5.66556  -11.60550
       O     6.76344    6.50654  -11.68454
      H1     7.68257    6.19267  -11.76492
       H    11.19223    5.55424  -11.94164
       O    12.10832    5.66453  -11.95402
      H1    12.44056    4.86583  -12.36442
       H     9.56302    6.25492  -10.90122
       O     9.43965    5.82234  -11.75487
      H1     9.41911    4.85539  -11.59148
       H     8.51953    5.33523   -6.62225
       O     8.35603    5.48240   -7.56434
      H1     9.22634    5.60244   -7.93017
       H    11.18611    6.00217   -8.31113
       O    10.68072    6.26351   -9.10598
      H1    10.58768    7.24084   -9.01478
       H    12.12934    1.36243   -7.15504
       O    11.38101    0.80544   -7.35319
      H1    11.53844    0.00851   -6.81105
       H     7.42114    3.03011  -14.36718
       O     8.04671    2.41952  -13.93870
      H1     7.66055    2.26940  -13.04857
       H    11.97024   -1.69724  -11.14106
       O    12.62936   -1.01200  -11.34616
      H1    12.96409   -0.70299  -10.46441
       H    12.66018    3.34942   -9.96060
       O    12.14457    2.94469   -9.23795
      H1    12.12828    3.62480   -8.57554
       H     9.83234   -0.17054  -12.60845
       O    10.34426    0.43628  -12.03113
      H1    11.16576   -0.01441  -11.83701
       H    13.11291    0.64204   -8.81326
       O    13.65954   -0.14275   -8.85284
      H1    13.36041   -0.67458   -8.11734
       H     8.02903    0.15933   -9.46720
       O     8.91328    0.23221   -9.09199
      H1     9.43459    0.16878   -9.90464
       H    10.54684    2.98402  -11.78260
       O     9.83522    3.17061  -11.17455
      H1    10.26374    3.02983  -10.31351

