60
frame 2 | Written by MDAnalysis XYZWriter (release 2.4.3)
       H     3.74241  -13.25828   13.87574
       O     4.40704  -12.61012   14.19002
      H1     5.18119  -13.11444   14.44833
       H     4.52662   -6.77468   14.74752
       O     4.04317   -7.58855   14.57119
      H1     4.00033   -7.54289   13.58847
       H     1.03456   -8.18072   13.39611
       O     1.35344   -7.37795   13.83485
      H1     2.20745   -7.65504   14.18938
       H     1.68343  -14.44687   14.22175
       O     2.38450  -14.30735   13.57763
      H1     1.84293  -13.73664   13.03250
       H     5.72867  -12.12470   18.57180
       O     5.78549  -12.99157   18.09970
      H1     6.33876  -12.73878   17.34302
       H     4.44377  -11.26239   13.03614
       O     4.41051  -10.47608   12.47732
      H1     4.34126  -10.88813   11.59079
       H    -0.19339   -6.98181   17.71432
       O     0.55847   -7.34232   17.22370
      H1     0.20460   -8.02695   16.63970
       H     2.44064   -7.04954   17.56528
       O     3.01077   -6.32703   17.87306
      H1     2.49716   -5.86126   18.51747
       H    -1.24128  -11.02178   18.87566
       O    -0.30649  -11.02719   18.52026
      H1    -0.34112  -10.44498   17.72779
       H    -0.67638  -14.98612   14.92173
       O    -0.05380  -14.28153   15.11065
      H1    -0.02819  -14.23783   16.07224
       H     4.00603   -8.61515   16.26286
       O     4.62878   -9.08663   16.83289
      H1     4.46587   -8.66201   17.66788
       H     3.08010  -11.88055   16.63573
       O     2.89637  -10.93019   16.63686
      H1     3.76769  -10.55575   16.77789
       H    -1.54946   -9.54382   15.57635
       O    -0.68435   -9.65325   15.97330
      H1    -0.32209  -10.38523   15.46023
       H     7.52023  -13.45821   15.45495
       O     6.69828  -12.93257   15.50227
      H1     6.75159  -12.20913   14.87574
       H     5.59006   -9.58577   13.81718
       O     6.25805   -9.35963   14.47162
      H1     5.76054   -9.12917   15.27726
       H    -0.37932  -12.64256   14.43296
       O    -0.60297  -11.75470   14.17149
      H1    -1.46854  -11.62226   14.64076
       H     0.13993  -12.82933   17.92166
       O    -0.01391  -13.79116   17.73518
      H1    -0.78025  -14.00018   18.33160
       H     1.87825   -9.35856   18.05111
       O     2.35429   -9.21091   18.86521
      H1     1.85090   -8.53909   19.32640
       H     1.98543  -10.33581   13.10820
       O     1.16132  -10.12127   12.64799
      H1     0.51528  -10.59887   13.17629
       H     4.36267  -13.34868   17.40091
       O     3.52863  -13.72723   17.08727
      H1     3.10423  -13.94433   17.91611

