60
frame 2 | Written by MDAnalysis XYZWriter (release 2.4.3)
       H    -7.35665   10.58323   10.93757
       O    -7.23489   11.31025   11.59244
      H1    -8.05073   11.21982   12.10020
       H   -10.19511   11.89196   13.13115
       O    -9.31362   12.24196   12.88662
      H1    -8.79284   12.24523   13.71396
       H    -5.89036    9.95809   14.96267
       O    -5.53383   10.84602   14.86596
      H1    -5.10079   10.84261   13.99885
       H   -11.86131   11.20498    9.90744
       O   -11.96510   11.88747    9.25720
      H1   -12.36520   11.43630    8.52552
       H    -9.30843    8.26375   11.66324
       O    -8.77081    8.99093   12.01537
      H1    -8.97854    8.99299   12.92633
       H    -6.09742    9.12217    8.89715
       O    -6.03152    9.68810    9.68353
      H1    -5.40508   10.35725    9.40189
       H   -12.10465   11.07882   12.95435
       O   -12.31576   11.58484   13.73870
      H1   -12.79177   10.89034   14.25421
       H    -9.57915   11.59020    8.65010
       O    -8.60303   11.62993    8.46914
      H1    -8.37286   10.76630    8.13826
       H   -11.54123    9.54394   11.39624
       O   -11.31940   10.45356   11.64833
      H1   -10.38808   10.34216   11.88646
       H    -7.38745   13.41350   14.78278
       O    -7.66784   12.51516   14.97466
      H1    -6.90167   11.94111   14.88282
       H   -10.24309    8.64759   15.52371
       O   -10.31222    8.15638   14.70009
      H1   -11.24415    8.23318   14.51370
       H    -6.24024    7.11334   13.52517
       O    -6.26115    7.08953   12.55106
      H1    -7.20771    7.13684   12.40420
       H    -5.23878    8.23052   12.30376
       O    -4.69578    9.00417   12.02229
      H1    -5.03129    9.09326   11.12387
       H   -11.00988   14.62512   11.50239
       O   -10.13437   14.67311   11.87492
      H1   -10.00367   13.83774   12.35117
       H    -8.53641   16.50802   11.59562
       O    -8.09063   16.49330   10.75081
      H1    -7.99355   15.54116   10.56459
       H    -4.42020   11.72063   10.74013
       O    -4.57129   11.98486    9.85083
      H1    -5.23876   12.67952    9.94930
       H    -6.77591   13.63851    9.39107
       O    -6.82517   13.65166   10.36124
      H1    -6.97590   12.72091   10.61697
       H    -5.89919   14.65887   11.48639
       O    -5.55832   15.05863   12.29127
      H1    -6.12149   14.74176   13.02810
       H    -9.25717   12.25850   15.72210
       O   -10.11203   12.13033   16.17100
      H1   -10.76087   12.51625   15.57045
       H    -5.56680   11.67213   12.13378
       O    -4.63725   11.69704   12.38962
      H1    -4.42124   12.62577   12.28272

