60
frame 2 | Written by MDAnalysis XYZWriter (release 2.4.3)
       H     2.87669    8.72584   -2.42029
       O     2.54410    8.63853   -1.52535
      H1     2.83186    7.75351   -1.23254
       H     2.11403    6.84871   -4.42903
       O     3.01943    6.71174   -4.74078
      H1     3.32670    6.07378   -4.06383
       H     6.25304   10.63472   -2.29128
       O     7.20059   10.45126   -2.25281
      H1     7.36079   10.27673   -1.31880
       H     7.25976    8.87963   -4.06320
       O     7.67487    8.02383   -3.92921
      H1     8.53116    8.24918   -3.55586
       H     7.51369    7.93024   -0.76659
       O     7.22467    7.20093   -1.40279
      H1     7.27413    7.68219   -2.25406
       H     8.06711   11.36805   -5.98990
       O     8.15952   11.03335   -6.92024
      H1     8.33194   10.07142   -6.90329
       H     0.85521    9.61575   -7.28874
       O     1.64190   10.04199   -7.60772
      H1     2.16765    9.31453   -7.92598
       H     4.53274   12.56514   -5.09141
       O     5.16793   12.84155   -4.40625
      H1     5.95662   12.93355   -4.93677
       H     6.47514   10.17978   -7.56996
       O     5.56467    9.93683   -7.83023
      H1     5.67317    9.28918   -8.50324
       H     2.81718   10.13888   -4.64811
       O     3.40161    9.56518   -4.11399
      H1     3.29486    8.71196   -4.59636
       H     2.30632   12.58179   -5.79996
       O     2.77081   11.72516   -5.67164
      H1     2.44154   11.24073   -6.45196
       H     7.69080    8.42476   -9.74276
       O     7.15941    7.95947   -9.09184
      H1     7.02810    7.10579   -9.49406
       H     4.15594   11.26635  -11.05288
       O     4.28653   10.50950  -10.46046
      H1     4.70393   10.95323   -9.71311
       H     5.89004    9.40203   -5.77262
       O     6.03575    9.89994   -4.96967
      H1     5.19894    9.93659   -4.50431
       H     6.42433    5.97315   -7.54273
       O     5.50977    5.77457   -7.46661
      H1     5.31733    5.20738   -8.22142
       H     8.75675   12.18274   -4.23955
       O     7.83535   12.17009   -4.46528
      H1     7.45909   11.68322   -3.71742
       H     5.09109   13.19700   -7.58228
       O     4.71505   12.71670   -8.31607
      H1     5.06088   11.84784   -8.11372
       H     8.56401    6.67200   -4.93626
       O     9.19976    6.00211   -4.95366
      H1     8.91671    5.39957   -4.23948
       H     3.35005    7.11422   -9.47900
       O     3.45029    7.43429   -8.57899
      H1     4.12745    6.83811   -8.22331
       H     8.13113    7.95245   -7.20078
       O     8.66019    8.42729   -6.56964
      H1     8.19822    8.13681   -5.77600

