60
frame 0 | Written by MDAnalysis XYZWriter (release 2.4.3)
       H     7.96564   17.85119  -10.08045
       O     7.50949   17.11898  -10.48601
      H1     8.03949   16.88904  -11.25970
       H     7.24247   19.16136  -13.47683
       O     6.86073   18.79983  -14.29542
      H1     5.92089   18.67577  -14.12750
       H     8.35040   17.94056   -7.45705
       O     8.75867   17.12749   -7.17925
      H1     8.39683   16.84415   -6.33091
       H    10.57220   14.70757   -9.87557
       O     9.68304   14.75428  -10.28795
      H1     9.16692   14.44588   -9.56746
       H    11.28352   14.78591   -6.17988
       O    11.47872   15.71370   -6.24823
      H1    10.81197   16.02671   -6.86047
       H    13.93370   17.72780   -8.56597
       O    14.02852   18.65845   -8.64789
      H1    13.21434   18.98143   -8.24240
       H     8.39712   12.65014   -8.71589
       O     8.57432   13.32257   -8.08251
      H1     7.87051   13.97657   -8.19771
       H    12.94371   18.18011  -11.56880
       O    13.85727   18.36042  -11.31531
      H1    13.89170   18.26897  -10.34612
       H    10.17373   13.32960  -11.47971
       O     9.76491   12.80262  -12.14215
      H1    10.28480   12.01099  -12.16209
       H     6.20705   13.44151  -11.84906
       O     6.82187   14.17133  -11.74723
      H1     7.67370   13.75893  -11.71124
       H     9.07124   15.68600  -13.34832
       O     9.31477   16.26249  -12.57222
      H1     9.61874   15.59813  -11.96736
       H    14.12061   15.41740   -9.48866
       O    15.03529   15.68893   -9.32279
      H1    15.32484   15.93705  -10.21807
       H    13.85671   16.50130   -4.43937
       O    12.97159   16.66113   -4.10931
      H1    12.39943   16.32779   -4.82652
       H    12.47560   15.83765  -13.06517
       O    12.19473   16.63692  -12.64100
      H1    11.24328   16.74162  -12.84863
       H     7.12909   15.61398   -9.04134
       O     6.52155   14.88171   -9.07661
      H1     6.68322   14.46594   -9.92818
       H     5.60776   16.52955  -10.89954
       O     4.70060   16.80074  -10.99767
      H1     4.49023   17.19673  -10.13821
       H    12.77375   13.82556  -10.40979
       O    12.46538   14.68305  -10.11630
      H1    12.47236   15.11530  -10.95662
       H    11.31727   18.15781   -9.34273
       O    10.81597   17.60853   -9.93578
      H1    10.69964   16.82061   -9.42290
       H    15.65607   17.89683   -6.52321
       O    15.70549   18.83610   -6.61619
      H1    15.18043   19.05283   -7.38990
       H    14.38527   16.95790  -12.19464
       O    14.92706   16.14268  -12.33104
      H1    15.82052   16.47566  -12.36612

