60
frame 0 | Written by MDAnalysis XYZWriter (release 2.4.3)
       H     2.14128  -12.14731   -6.32489
       O     2.05983  -11.85820   -5.42054
      H1     2.32426  -12.62128   -4.87948
       H    -3.63089   -9.45609   -4.56614
       O    -4.56936   -9.29282   -4.62896
      H1    -4.70145   -8.84608   -5.46533
       H    -1.03049  -12.26882   -2.34824
       O    -0.94318  -12.15897   -1.41449
      H1    -1.69783  -11.64252   -1.20290
       H    -2.55159  -13.18000   -4.36344
       O    -3.49939  -12.91842   -4.44332
      H1    -3.91871  -13.74459   -4.71808
       H    -0.50015  -14.26393    0.95948
       O    -0.39221  -13.30292    1.03962
      H1    -0.63233  -12.96810    0.14416
       H     3.97226  -13.37243   -4.46533
       O     3.26437  -14.05523   -4.38689
      H1     3.19365  -14.24885   -3.43354
       H    -4.15814  -12.68908   -2.71738
       O    -4.84667  -12.41690   -2.07144
      H1    -5.14737  -13.26800   -1.72031
       H    -1.48496  -15.35105   -2.52009
       O    -1.50317  -15.09472   -3.44487
      H1    -2.06960  -15.77891   -3.78777
       H     0.23112  -12.19321   -4.38214
       O    -0.61401  -12.61488   -4.21109
      H1    -0.36202  -13.54167   -4.21295
       H    -0.51739  -12.58831   -8.36972
       O     0.20627  -12.76127   -8.92938
      H1     0.77750  -11.98888   -8.77824
       H     3.46842  -12.30025   -2.28479
       O     4.15436  -11.76698   -2.69709
      H1     4.00217  -10.89594   -2.27373
       H    -1.37085  -10.83755   -5.02598
       O    -1.41768   -9.88133   -5.11540
      H1    -1.22281   -9.58615   -4.20858
       H    -0.40277  -14.93891   -6.15682
       O    -0.92655  -14.67793   -6.93955
      H1    -1.82476  -14.49454   -6.57703
       H    -2.24474  -10.92858   -8.23730
       O    -1.84692  -11.60763   -7.68252
      H1    -2.63379  -12.03753   -7.32842
       H     1.67358  -15.15846   -4.62255
       O     0.79969  -15.32582   -5.00950
      H1     0.30118  -15.67289   -4.27218
       H     1.04399  -11.96292   -1.62613
       O     1.92633  -12.41424   -1.54434
      H1     2.34908  -11.90285   -0.84569
       H    -0.96471   -8.13321   -7.37967
       O    -0.62445   -9.02191   -7.47141
      H1    -0.77736   -9.45953   -6.59435
       H     1.72719   -8.75810   -5.77229
       O     2.59026   -9.25648   -5.84436
      H1     2.45224  -10.14585   -5.56325
       H     2.56665  -15.30992   -2.11541
       O     1.61084  -15.10747   -2.05161
      H1     1.62283  -14.21792   -1.67587
       H    -4.20798  -12.67020   -6.06047
       O    -4.48283  -12.51663   -6.96167
      H1    -5.31755  -12.00964   -6.89342

