60
frame 2 | Written by MDAnalysis XYZWriter (release 2.4.3)
       H    14.22131    3.56635   13.10577
       O    13.77694    4.41236   13.19972
      H1    13.04975    4.26017   13.83590
       H     8.57381    3.61348   12.11577
       O     9.34914    3.07219   11.84608
      H1     8.91932    2.52184   11.15993
       H     9.21417    0.48616   13.84323
       O    10.11417    0.71466   14.01579
      H1    10.08573    1.66553   13.90156
       H    13.15653   -0.74201   16.50305
       O    12.99800   -0.60200   15.56396
      H1    12.11634   -0.98550   15.42864
       H    15.47008    1.35577   17.12379
       O    15.61364    1.92807   16.36366
      H1    15.85776    1.34504   15.65591
       H    16.05652    3.98322   14.23900
       O    16.85489    4.51392   14.18873
      H1    17.49454    3.88527   13.79498
       H    10.67006    0.30906   12.21364
       O    10.67213   -0.01776   11.32435
      H1    11.62133   -0.11720   11.15200
       H    14.09978    1.17469   18.86442
       O    14.66960    0.51055   18.48316
      H1    15.48896    0.55088   19.01309
       H    10.30951    5.61035   18.11997
       O    10.79024    5.97594   18.90049
      H1    11.54928    5.41450   18.98501
       H    13.16235    6.14312   14.81353
       O    12.71073    5.89172   15.60177
      H1    13.40244    5.86765   16.29090
       H    11.87001    2.40963   15.04055
       O    12.77179    2.04768   15.03875
      H1    12.65925    1.10718   15.17684
       H    14.19536    5.09256   17.75513
       O    14.47769    6.00070   17.71258
      H1    15.40780    5.95279   17.59659
       H    10.19306   -0.80120   14.69248
       O    10.37429   -1.60930   15.20962
      H1    10.43260   -2.27147   14.48303
       H    16.12379    2.43096   12.21152
       O    15.67572    2.17762   13.05283
      H1    15.03502    1.49545   12.81186
       H    10.55830    4.68304   13.53810
       O    10.95722    4.03556   14.13428
      H1    10.62035    4.30536   15.01777
       H    11.19228    4.11163   17.08634
       O    10.28301    4.21826   16.82119
      H1     9.88292    3.35632   17.08617
       H    12.33085    4.17220   11.02787
       O    11.49201    4.65116   11.22446
      H1    10.88901    3.91848   11.47692
       H     8.00307    1.97700   17.10404
       O     8.89237    1.81933   17.42149
      H1     9.03196    0.91175   17.22695
       H    13.20656    0.82818   13.35940
       O    13.44410    0.18388   12.68045
      H1    13.57281   -0.63513   13.17752
       H    13.44598    3.20331   16.66995
       O    13.05501    3.63656   17.44614
      H1    13.02421    2.90063   18.06917

