60
frame 2 | Written by MDAnalysis XYZWriter (release 2.4.3)
       H    -6.02780    3.16934   17.59977
       O    -6.10064    4.11493   17.82018
      H1    -6.02674    4.56925   16.95043
       H   -15.69345    0.92371   16.90169
       O   -15.57309    0.65752   17.81004
      H1   -14.76554    1.11984   18.06549
       H   -11.49211    2.69429   11.86139
       O   -11.57973    2.94973   12.75620
      H1   -12.22717    2.33548   13.11143
       H    -5.36548    3.90884   14.82120
       O    -5.84848    4.75275   14.78122
      H1    -6.74830    4.46402   14.45170
       H    -6.42778    7.09155   18.36773
       O    -7.27989    6.62929   18.22311
      H1    -7.02068    5.69970   18.30678
       H    -8.22015    1.79485   17.06670
       O    -9.11845    1.80935   17.42356
      H1    -9.25694    0.86455   17.53762
       H   -10.69542    4.40306   18.57622
       O   -11.41023    4.48402   17.90108
      H1   -11.01191    4.17568   17.07829
       H   -12.83850   -0.55700   17.92091
       O   -12.55901   -1.31858   18.45079
      H1   -13.17502   -1.33356   19.20786
       H   -14.24594    1.85924   14.10240
       O   -13.36786    1.66074   14.38117
      H1   -13.51655    0.86717   14.87264
       H   -10.24309    8.64759   15.52371
       O   -10.31222    8.15638   14.70009
      H1   -11.24415    8.23318   14.51370
       H    -7.95724    1.76851   15.29505
       O    -7.08977    1.89993   15.72383
      H1    -6.45714    1.63628   15.05286
       H   -11.31027    4.73155   12.55600
       O   -10.75878    5.51061   12.65246
      H1   -10.10112    5.25166   13.30540
       H   -13.41889    4.78913   15.17994
       O   -13.84976    4.01128   15.58653
      H1   -13.29742    3.27074   15.20530
       H    -9.47785    3.23395   16.35468
       O    -9.86239    3.83232   15.71805
      H1    -9.42447    4.66431   15.89212
       H    -9.23651    7.07046   15.77744
       O    -8.65717    6.33304   16.02374
      H1    -8.38594    6.51105   16.93322
       H   -12.06833    6.15396   17.31396
       O   -12.68641    6.82837   17.06336
      H1   -13.49258    6.61222   17.48928
       H   -12.60424    6.54756   15.20712
       O   -12.85890    6.34511   14.32144
      H1   -12.06254    6.08371   13.80670
       H   -14.96159    5.24719   19.21453
       O   -14.98297    5.25218   18.25725
      H1   -14.38162    4.55281   18.04268
       H    -7.56564    3.90864   12.65051
       O    -8.17241    4.19270   13.35863
      H1    -8.49415    3.34436   13.69780
       H    -9.80074    2.17261   14.48206
       O    -9.11189    1.67468   13.98470
      H1    -9.32452    1.84515   13.04638

