60
frame 4 | Written by MDAnalysis XYZWriter (release 2.4.3)
       H     5.61282   12.88116   14.64444
       O     6.38680   12.94699   15.25739
      H1     6.61897   12.04831   15.46713
       H     5.22188   15.96380   18.62889
       O     4.35548   16.39416   18.72715
      H1     4.42687   17.01896   19.46136
       H    10.55733   13.15013   16.53551
       O    10.08874   12.96330   17.29261
      H1    10.12758   13.79967   17.82232
       H    12.62146   13.73560   15.72051
       O    13.36914   13.44074   16.29087
      H1    13.06251   13.28132   17.17359
       H     8.59645   12.01435   17.19631
       O     7.87426   11.35333   17.01079
      H1     8.33933   10.57547   16.64843
       H    14.51238   19.11640   19.05035
       O    14.07634   18.29717   18.71255
      H1    13.44724   18.56174   18.09547
       H    11.03996   14.89590   14.16541
       O    11.11319   13.95855   14.51905
      H1    11.57239   13.46693   13.83664
       H    14.74893   15.28263   17.63345
       O    15.35428   15.48293   18.41006
      H1    14.95988   16.11375   19.01173
       H    11.87446   20.21045   17.11664
       O    11.97710   19.23515   17.12855
      H1    11.11917   18.78411   16.79244
       H    11.01628   15.45982   19.34910
       O    10.11695   15.14715   19.07608
      H1     9.51057   15.86840   19.36025
       H     9.41649   13.70421   14.34977
       O     8.49817   13.86475   13.96232
      H1     7.79209   13.54782   14.60554
       H     6.61902   13.91109   16.93217
       O     6.51547   14.43001   17.71187
      H1     6.47428   13.79539   18.44148
       H    12.98970   12.37952   19.62123
       O    13.30340   12.50966   18.72079
      H1    14.25881   12.53462   18.70293
       H     8.63087   16.81497   17.56406
       O     7.71321   16.85281   17.90140
      H1     7.38379   15.98106   17.85297
       H     7.65253   18.11964   14.55867
       O     7.25614   18.60779   15.33005
      H1     7.21501   17.96074   16.03591
       H    10.18793   17.25546   15.69509
       O     9.91877   17.74751   16.46474
      H1     9.11584   18.30330   16.22926
       H    14.25534   16.41394   15.12655
       O    13.98712   16.72802   16.03287
      H1    13.28626   17.35201   15.80809
       H     6.81259    8.61099   18.60270
       O     6.69652    9.53768   18.78592
      H1     7.15755   10.03970   18.13478
       H    10.24071   16.70713   13.22385
       O    10.91588   16.64381   13.87091
      H1    11.70554   16.99431   13.44411
       H    13.11961   10.27040   18.39439
       O    12.68994    9.46686   18.07122
      H1    12.86322    8.85235   18.84349

