60
frame 2 | Written by MDAnalysis XYZWriter (release 2.4.3)
       H   -18.86906   17.84477  -15.98262
       O   -18.79718   17.05410  -16.54085
      H1   -18.27665   16.44420  -16.03172
       H   -19.14356   17.98919  -19.31121
       O   -18.31720   18.39778  -19.04232
      H1   -17.96473   17.76378  -18.39891
       H   -14.44041   15.46788  -15.53887
       O   -14.62437   16.40764  -15.36977
      H1   -15.41228   16.38456  -14.82101
       H   -13.20865   15.69554  -18.39017
       O   -13.63556   14.82194  -18.33307
      H1   -14.52107   15.07624  -18.53223
       H   -13.25083   14.30157  -16.56828
       O   -13.66181   13.97216  -15.72669
      H1   -12.92137   14.00490  -15.08683
       H   -10.71958   12.66373  -17.31422
       O    -9.82521   12.34568  -17.36198
      H1    -9.97295   11.39769  -17.36802
       H   -16.83823   13.03009  -14.11705
       O   -16.29977   13.83541  -14.34116
      H1   -15.46636   13.74399  -13.85885
       H   -14.50476    9.11777  -15.82666
       O   -14.65985    8.17432  -15.70768
      H1   -14.40419    8.01098  -14.79863
       H   -15.06203   17.86488  -18.25200
       O   -15.80690   17.54085  -17.74266
      H1   -15.43587   17.07628  -16.97129
       H   -11.52918   10.39998  -17.39538
       O   -12.19374   11.05779  -17.51268
      H1   -12.56168   11.15859  -16.62660
       H   -13.29929   14.77532  -12.57230
       O   -13.99663   15.36938  -12.81844
      H1   -13.76369   15.60798  -13.72479
       H   -14.40372   11.89095  -15.75468
       O   -14.59044   11.01700  -16.01753
      H1   -15.40547   11.07487  -16.55741
       H   -15.90706   18.20502  -12.74979
       O   -16.03310   17.77747  -13.59877
      H1   -16.04848   18.52638  -14.25245
       H   -10.45079   15.40112  -18.06546
       O    -9.97516   15.28035  -17.24754
      H1    -9.04046   15.26987  -17.52500
       H   -18.46900   14.23654  -15.84049
       O   -17.70402   14.41458  -16.41135
      H1   -16.92720   14.18139  -15.86486
       H   -17.35504   10.26246  -17.69429
       O   -17.21045   11.07970  -17.21072
      H1   -17.48495   10.90324  -16.27515
       H   -17.33543    7.99016  -18.54548
       O   -17.63619    8.86069  -18.89976
      H1   -16.87765    9.25126  -19.37799
       H   -12.08559   10.61809  -14.25474
       O   -12.31301   11.55453  -14.42105
      H1   -11.47647   11.97332  -14.13450
       H   -17.37835   10.69481  -13.90709
       O   -17.88392   11.13590  -14.60191
      H1   -18.73709   10.67667  -14.70697
       H   -16.62350   14.09601  -17.88952
       O   -16.13969   13.75580  -18.64585
      H1   -16.31438   12.80295  -18.59404

