60
frame 0 | Written by MDAnalysis XYZWriter (release 2.4.3)
       H     4.79324    9.68006   -1.62171
       O     4.06348    9.15920   -1.94086
      H1     3.58588    8.78529   -1.15607
       H     4.82159    9.12151    5.49498
       O     4.25352    8.68891    4.83197
      H1     3.85670    7.95207    5.32158
       H     2.29148   13.32702    5.45667
       O     1.81446   12.50973    5.52250
      H1     2.03166   12.16430    6.40984
       H     4.89793   11.64695    3.67711
       O     4.63688   12.22228    4.41685
      H1     4.02577   12.86458    4.02629
       H     6.57098    8.50807    1.53556
       O     6.04375    7.89278    1.00384
      H1     6.76979    7.38580    0.58572
       H    -1.31997    7.54466    6.35966
       O    -0.39107    7.50731    6.08905
      H1    -0.40143    8.06721    5.30346
       H     4.40187    5.16224    1.50178
       O     3.97622    6.02195    1.63709
      H1     4.69866    6.63231    1.43575
       H     3.46602    5.99745    3.62815
       O     3.39792    6.06662    4.58545
      H1     2.52690    5.69658    4.80342
       H     2.17442    8.15250    2.54433
       O     2.37712    9.05986    2.77518
      H1     2.98029    8.98683    3.53960
       H     2.85461    5.52258    0.38209
       O     2.29568    5.49444   -0.38562
      H1     2.84108    5.72441   -1.14769
       H     1.34027    8.76935    0.31380
       O     1.87421    8.29571   -0.34209
      H1     1.66213    7.33268   -0.24632
       H    -1.07776   12.13570    2.62758
       O    -1.55362   11.49777    3.14639
      H1    -0.82431   10.90383    3.39958
       H     0.28095   10.93177    0.77548
       O     0.06273    9.98376    0.68966
      H1    -0.05792    9.95949   -0.24770
       H     2.36433   11.45727    2.10394
       O     1.72547   12.03408    2.61495
      H1     1.93327   11.80868    3.53034
       H     4.93745    9.78324    3.17574
       O     5.25814   10.41051    2.50407
      H1     4.65177   10.20617    1.74972
       H     0.98037    9.47621    3.57050
       O     0.23433    9.66120    4.17498
      H1     0.56852   10.25363    4.79984
       H     0.71020    9.33172   -1.63374
       O    -0.10022    9.72636   -1.88719
      H1    -0.77295    9.06941   -2.01508
       H    -3.02929   10.15556    1.66643
       O    -2.50602    9.37246    1.44387
      H1    -1.64318    9.76139    1.19074
       H     0.10324    7.59901    2.10093
       O     0.78766    6.92636    2.23085
      H1     0.58752    6.47188    3.02071
       H     2.86558    9.76801    0.82694
       O     3.17596   10.68819    0.63872
      H1     2.75897   10.91676   -0.19352

