60
frame 2 | Written by MDAnalysis XYZWriter (release 2.4.3)
       H    -7.61272    8.05536  -10.35062
       O    -7.10757    8.70417  -10.80583
      H1    -7.78109    9.30063  -11.15100
       H    -8.69620    5.74778  -10.19903
       O    -8.79131    6.71381  -10.12507
      H1    -9.38907    6.84668   -9.38310
       H   -13.19259    7.30475  -10.07753
       O   -12.33884    7.02086  -10.38391
      H1   -11.96142    7.83304  -10.77327
       H    -7.94601    9.32326  -14.34600
       O    -8.67048    8.71651  -14.26338
      H1    -9.38758    9.17897  -14.68587
       H    -8.82482   11.02493  -12.31644
       O    -8.97794   10.23726  -11.76818
      H1    -9.26551    9.57837  -12.41963
       H   -11.85881    8.67786  -16.07730
       O   -11.42482    9.01942  -15.29460
      H1   -11.71683    8.44495  -14.57473
       H    -9.22550    9.03828  -17.25932
       O    -9.73964    9.65044  -17.81291
      H1    -9.92217    9.18685  -18.61424
       H    -9.80268    4.85847  -17.62154
       O   -10.33380    5.52751  -17.17592
      H1    -9.77164    6.28894  -17.04000
       H   -12.31630    5.21995  -10.08829
       O   -12.20365    4.33970   -9.72562
      H1   -12.84592    4.32770   -9.01431
       H    -7.75974    7.22352  -17.92302
       O    -8.21897    7.18138  -17.05976
      H1    -7.50490    7.02496  -16.44798
       H    -9.48050    5.20321  -15.47789
       O    -8.83173    4.91649  -14.82026
      H1    -9.09534    5.29247  -13.97773
       H   -12.92764    7.33387  -12.49937
       O   -12.21657    7.36079  -13.16004
      H1   -11.50293    6.85859  -12.70824
       H    -9.62054    6.18500  -11.86016
       O    -9.87066    6.28589  -12.76161
      H1    -9.35524    7.01316  -13.08071
       H    -6.51872    7.14982  -11.80197
       O    -6.46924    6.22189  -12.12684
      H1    -6.24745    5.73125  -11.35326
       H   -12.31269    9.96974  -11.33032
       O   -11.62565    9.44005  -10.91518
      H1   -10.84422    9.96088  -10.88008
       H    -5.65199    9.93690  -13.13724
       O    -6.27751   10.03897  -13.87013
      H1    -6.59186   10.94174  -13.67434
       H    -6.18338    6.53327  -14.18180
       O    -6.39042    6.40530  -15.09817
      H1    -7.17672    5.82569  -15.05346
       H    -6.07572    3.77244  -13.70935
       O    -5.21931    3.43607  -14.02975
      H1    -5.07487    2.63347  -13.49981
       H    -9.60240    3.23445  -14.04396
       O   -10.12126    2.50017  -13.68956
      H1    -9.73414    1.76158  -14.13778
       H   -10.60405    5.81189   -7.77522
       O   -10.66609    6.68172   -8.16841
      H1   -10.92258    6.59072   -9.07751

