60
frame 2 | Written by MDAnalysis XYZWriter (release 2.4.3)
       H    -4.78584   18.16175    1.83196
       O    -4.72380   17.37636    2.43676
      H1    -4.44068   17.70782    3.28252
       H    -4.27443   18.07323    7.69895
       O    -4.04413   17.94697    8.60365
      H1    -4.76982   18.36333    9.08324
       H    -4.57746   11.94596    5.51876
       O    -4.97471   11.56765    6.28539
      H1    -5.35655   10.75898    5.90509
       H    -7.71684   18.58857    6.11542
       O    -7.20478   19.08659    5.43916
      H1    -7.54380   18.76049    4.58822
       H    -5.89486   14.13696    1.89777
       O    -5.89330   13.97363    2.83725
      H1    -6.55256   13.27038    2.94970
       H   -10.33953   16.97198    5.08743
       O    -9.65981   17.53979    5.46992
      H1    -9.97160   17.81928    6.36148
       H    -3.54692   16.20531    1.80325
       O    -2.89794   15.78873    1.23384
      H1    -2.26915   15.37518    1.83417
       H    -3.62260   14.59512    5.54018
       O    -2.68603   14.58369    5.76004
      H1    -2.69724   13.98043    6.51868
       H    -6.06692   12.84715    7.06386
       O    -6.76606   13.41152    7.44481
      H1    -7.49598   12.83537    7.72128
       H    -8.27194   14.90241    6.44556
       O    -7.89682   15.70217    6.04468
      H1    -8.67736   16.21650    5.77842
       H   -10.01591   13.27613    7.21234
       O   -10.00327   13.49903    6.26543
      H1   -10.76183   14.07292    6.25207
       H    -4.97082   16.98543    5.16816
       O    -4.69340   17.88968    5.38378
      H1    -5.55184   18.33652    5.38070
       H    -8.20578   11.78086    4.69010
       O    -8.07597   12.27792    3.87660
      H1    -8.73573   13.00751    3.89416
       H    -0.32534   15.34513    3.70946
       O    -1.08242   14.85338    3.36851
      H1    -1.57003   14.58074    4.17993
       H    -3.40810   12.79033    8.53725
       O    -2.92509   13.58111    8.33689
      H1    -3.02083   14.18918    9.08185
       H    -2.48613   16.35974    6.23502
       O    -2.23961   17.28868    6.10284
      H1    -3.07264   17.72149    5.82735
       H    -7.95027   15.01854    3.68253
       O    -8.60685   14.75653    3.02182
      H1    -8.09374   14.67171    2.23374
       H    -6.77591   13.63851    9.39107
       O    -6.82517   13.65166   10.36124
      H1    -6.97590   12.72091   10.61697
       H    -5.57000   14.87344    4.25692
       O    -5.31654   15.13228    5.16063
      H1    -6.18560   15.10228    5.57377
       H    -3.24331   10.72478    3.96033
       O    -4.10389   11.06065    3.70069
      H1    -3.96119   11.67053    2.96051

