60
frame 2 | Written by MDAnalysis XYZWriter (release 2.4.3)
       H   -14.84742   -1.90866    4.96559
       O   -15.49016   -2.14953    4.31066
      H1   -16.27478   -1.65878    4.58668
       H   -11.64025   -1.31027    4.30942
       O   -11.38005   -1.78729    5.08942
      H1   -10.52203   -1.46234    5.31948
       H   -16.60448    4.47177    5.61849
       O   -16.80470    5.10226    6.32706
      H1   -16.17592    4.78992    6.97336
       H   -13.79561    3.83504    7.80509
       O   -12.88021    3.64962    7.63536
      H1   -12.53977    4.46175    7.22181
       H   -14.29467    4.15732    1.29877
       O   -13.36351    3.98414    1.43879
      H1   -12.89886    4.74317    0.99478
       H   -13.55935    3.73881    4.58551
       O   -13.58644    4.52770    4.00679
      H1   -13.55953    4.14068    3.12010
       H   -15.62603    1.69032    6.39686
       O   -15.27142    0.80975    6.46976
      H1   -16.09692    0.25940    6.43669
       H   -11.13479    4.50038    5.37952
       O   -11.52129    5.30244    5.70411
      H1   -12.26393    5.45647    5.12160
       H   -10.47520    1.72009    4.86408
       O   -11.41523    2.01356    4.97008
      H1   -11.65773    1.67558    5.84502
       H   -13.97259    1.47400   -0.42050
       O   -13.64682    1.51006    0.46949
      H1   -13.47238    2.45870    0.63638
       H   -13.19907    1.44010    4.51086
       O   -13.97076    1.06423    4.07243
      H1   -14.60127    0.94782    4.78206
       H   -14.78844   -3.97371    1.45634
       O   -14.26616   -3.36426    2.01911
      H1   -14.84602   -2.98423    2.65294
       H   -12.96011   -0.10254    3.23594
       O   -12.40829   -0.75797    2.81511
      H1   -13.12830   -1.36533    2.57996
       H   -12.10885    1.57863    7.76879
       O   -11.65608    0.79621    7.45990
      H1   -10.78403    0.85009    7.83615
       H   -15.38632    1.75284    1.32387
       O   -16.05558    1.61922    1.99402
      H1   -16.13848    0.67164    1.96709
       H   -11.41072    4.38129    2.16655
       O   -10.44959    4.55698    2.29463
      H1   -10.03800    3.69397    2.18847
       H   -18.39599   -1.23524    4.32093
       O   -17.72005   -0.59192    4.07728
      H1   -17.49492   -0.80182    3.18285
       H   -13.92205   -0.53103    6.30525
       O   -13.75499   -1.49248    6.26418
      H1   -12.93023   -1.54074    5.79331
       H   -17.11721    2.47512    4.76772
       O   -16.21224    2.87801    4.70899
      H1   -15.91262    2.69259    3.81461
       H   -12.10697    0.68349    0.50131
       O   -11.31113    0.20465    0.25788
      H1   -11.05052   -0.19354    1.08814

