60
frame 2 | Written by MDAnalysis XYZWriter (release 2.4.3)
       H    15.47646   -6.16859    9.16092
       O    15.27194   -5.74293   10.02208
      H1    16.18272   -5.67358   10.41653
       H    14.36621   -3.32391    8.63161
       O    14.05516   -3.47477    9.54889
      H1    14.09148   -4.42228    9.67711
       H    17.51695   -4.90581    7.80636
       O    18.26822   -4.40724    7.46032
      H1    18.28692   -4.60708    6.51078
       H    15.04053   -0.24364    9.73047
       O    15.97278   -0.26432    9.52635
      H1    16.41037   -0.14135   10.38099
       H    17.83224   -6.01776    4.88613
       O    18.31139   -5.17716    4.91091
      H1    19.10017   -5.35408    4.38056
       H    14.95678   -2.93634    6.42805
       O    14.73918   -3.70785    6.92568
      H1    15.51988   -4.27337    6.82307
       H    18.14721   -0.49921   11.31021
       O    17.30138   -0.46027   11.83115
      H1    16.80093   -1.27090   11.60760
       H    18.25068   -6.27861   12.42185
       O    18.51967   -6.99995   13.02080
      H1    18.81399   -7.72681   12.41531
       H    17.17001   -4.92633   13.83741
       O    16.30910   -5.10609   13.38091
      H1    15.87504   -5.74243   13.98484
       H    19.26984   -5.67787   10.33705
       O    18.37434   -5.53175   10.72130
      H1    18.45001   -4.60798   10.94807
       H    15.67684   -8.53091   12.25846
       O    15.49737   -8.54111   11.31039
      H1    15.27518   -7.61092   11.18069
       H    16.37990   -1.15005    5.17667
       O    15.80536   -1.25171    5.95631
      H1    16.43957   -1.41651    6.66396
       H    17.14476  -10.48120   12.11865
       O    16.74502  -11.32503   12.34873
      H1    15.84464  -11.12617   12.66616
       H    17.44377   -1.30072    8.59162
       O    17.71612   -1.62547    7.73060
      H1    17.80758   -2.58268    7.81527
       H    16.24985   -7.01774    7.49445
       O    15.82660   -6.17865    7.34158
      H1    15.64967   -6.26374    6.37708
       H    15.94238   -3.78173   12.10569
       O    16.14432   -3.03002   11.50642
      H1    15.52227   -3.25190   10.80226
       H    12.79313   -7.43453   12.16408
       O    13.12403   -6.63749   12.64617
      H1    13.10931   -5.96465   11.95897
       H    14.61192   -3.14531   14.00491
       O    14.37111   -2.21297   13.87345
      H1    14.12781   -1.89238   14.73915
       H    16.64503   -8.36135    9.41677
       O    16.97436   -8.43977    8.52101
      H1    16.71148   -9.38086    8.35510
       H    17.87088   -9.27743   14.72345
       O    17.13714   -8.86513   14.23599
      H1    17.50383   -8.01396   13.97886

