60
frame 0 | Written by MDAnalysis XYZWriter (release 2.4.3)
       H     2.72320    7.26190   -5.02108
       O     3.15729    6.63960   -5.62502
      H1     4.03266    6.48555   -5.20713
       H     4.79324    9.68006   -1.62171
       O     4.06348    9.15920   -1.94086
      H1     3.58588    8.78529   -1.15607
       H     1.22632    9.30584   -3.57598
       O     1.98043    8.88230   -4.06308
      H1     2.78015    9.04639   -3.52238
       H     5.64066   13.14339    0.03658
       O     4.98250   13.61765   -0.51341
      H1     4.33600   12.94397   -0.80845
       H     6.88301   10.92743   -1.02074
       O     6.81726   10.25855   -1.69277
      H1     6.91027   10.75862   -2.50122
       H     1.98830   13.36048   -1.44796
       O     2.50596   12.54257   -1.37405
      H1     2.74930   12.35071   -2.26469
       H     6.57098    8.50807    1.53556
       O     6.04375    7.89278    1.00384
      H1     6.76979    7.38580    0.58572
       H     4.40187    5.16224    1.50178
       O     3.97622    6.02195    1.63709
      H1     4.69866    6.63231    1.43575
       H     4.29740   12.77290   -3.61827
       O     4.04578   11.85304   -3.42639
      H1     3.74967   11.56930   -4.28901
       H     2.17442    8.15250    2.54433
       O     2.37712    9.05986    2.77518
      H1     2.98029    8.98683    3.53960
       H     2.85461    5.52258    0.38209
       O     2.29568    5.49444   -0.38562
      H1     2.84108    5.72441   -1.14769
       H     1.34027    8.76935    0.31380
       O     1.87421    8.29571   -0.34209
      H1     1.66213    7.33268   -0.24632
       H     0.28095   10.93177    0.77548
       O     0.06273    9.98376    0.68966
      H1    -0.05792    9.95949   -0.24770
       H     4.93745    9.78324    3.17574
       O     5.25814   10.41051    2.50407
      H1     4.65177   10.20617    1.74972
       H     5.69846    8.05160   -4.44506
       O     5.74471    7.70436   -3.54495
      H1     5.19723    8.35835   -3.06203
       H     4.92836    5.01599   -2.14856
       O     4.17677    5.11280   -2.69162
      H1     3.71869    4.24458   -2.66698
       H     6.99630    6.60563   -1.53829
       O     7.55511    7.32125   -1.18856
      H1     7.16577    8.12000   -1.54880
       H     0.71020    9.33172   -1.63374
       O    -0.10022    9.72636   -1.88719
      H1    -0.77295    9.06941   -2.01508
       H     7.02286   12.23894   -3.58010
       O     6.66358   11.50971   -4.04294
      H1     5.77452   11.41874   -3.68878
       H     2.86558    9.76801    0.82694
       O     3.17596   10.68819    0.63872
      H1     2.75897   10.91676   -0.19352

