60
frame 2 | Written by MDAnalysis XYZWriter (release 2.4.3)
       H     2.15433    5.33652   -6.18171
       O     2.00029    5.23760   -7.09478
      H1     2.36435    6.06033   -7.46248
       H     4.29119   -2.79149   -1.77774
       O     3.59219   -2.11116   -1.79571
      H1     4.04121   -1.37315   -1.32518
       H     9.11057    1.40082   -5.20057
       O     8.63325    0.61039   -5.52629
      H1     7.86989    0.60647   -4.93592
       H    -0.97403    1.58058   -4.39563
       O    -1.37281    0.73058   -4.68391
      H1    -0.62508    0.15087   -4.99227
       H     5.50668   -1.24947   -4.18722
       O     5.44174   -1.99196   -4.77163
      H1     5.87549   -1.73296   -5.61431
       H     5.63936    1.06238   -4.14993
       O     6.20459    0.33874   -3.80618
      H1     6.59280    0.77830   -3.04240
       H     7.76434    3.18102   -3.04904
       O     7.83698    4.03628   -3.51166
      H1     7.20422    3.96578   -4.23923
       H     0.36858   -2.07403   -4.61906
       O     0.17179   -1.80039   -5.48609
      H1     1.02090   -1.60549   -5.86397
       H     5.25273    1.18566   -6.75482
       O     4.91242    1.65480   -5.97600
      H1     5.26573    2.53810   -6.05894
       H     1.42227    2.41562   -4.95122
       O     0.52157    2.74021   -4.86357
      H1     0.29389    2.94100   -5.78486
       H     3.49999    2.15330   -8.02068
       O     3.19826    2.81441   -8.66200
      H1     3.07489    2.29621   -9.44499
       H     0.69348    4.88887   -2.25915
       O     1.16226    4.87533   -3.09005
      H1     0.68975    4.23974   -3.62778
       H     5.55165    4.84985   -6.06372
       O     5.80523    4.23644   -5.35665
      H1     5.14797    4.43682   -4.66738
       H     6.65903    0.73330   -7.55169
       O     6.07933    0.23698   -8.13827
      H1     6.11867   -0.64534   -7.79207
       H     2.23431   -0.98468   -7.87404
       O     2.50346   -0.88694   -6.94562
      H1     2.28165    0.02751   -6.73587
       H     4.93761    2.51230   -0.68219
       O     4.62336    1.88945   -1.36156
      H1     3.74120    1.67415   -1.02669
       H     5.71812    4.14439   -2.71504
       O     4.74874    4.16545   -2.88132
      H1     4.44568    3.35028   -2.46041
       H     2.85924   -1.57710   -4.96526
       O     2.53413   -1.29426   -4.06581
      H1     3.25882   -1.47347   -3.46140
       H     6.46118   -0.57698   -0.55412
       O     5.52860   -0.49832   -0.21382
      H1     5.34306    0.35466   -0.62376
       H     2.71800    0.51038   -4.01975
       O     2.91194    1.43705   -4.28069
      H1     3.75112    1.39873   -4.81911

