60
frame 2 | Written by MDAnalysis XYZWriter (release 2.4.3)
       H   -12.90023    3.52425   -4.63736
       O   -12.18851    4.16004   -4.60763
      H1   -11.91060    4.16505   -3.66795
       H   -15.13373    2.28527   -4.56892
       O   -14.35124    2.62381   -5.00457
      H1   -13.96618    1.88428   -5.51564
       H    -7.51928    2.51695   -1.89434
       O    -7.67001    1.73614   -2.42844
      H1    -8.12735    1.10722   -1.87239
       H   -10.63879    2.91583   -2.94340
       O   -10.86290    3.41024   -2.14633
      H1   -10.38827    4.24070   -2.23790
       H   -14.03489    3.97768   -1.87157
       O   -13.59178    3.14926   -1.68257
      H1   -12.66193    3.21440   -1.93805
       H    -8.58793   -1.96826   -3.82529
       O    -7.63856   -2.09555   -3.74735
      H1    -7.49652   -3.05318   -3.87256
       H    -7.24464    0.05595   -5.91179
       O    -6.75271   -0.78232   -6.14132
      H1    -7.07476   -1.37219   -5.43991
       H   -13.43747   -0.98852   -3.33077
       O   -13.35436   -1.94900   -3.36982
      H1   -12.40979   -2.09209   -3.56160
       H   -11.03274    4.23908   -6.18330
       O   -10.41558    4.11805   -6.90040
      H1   -10.71767    3.30068   -7.28387
       H    -9.04017   -1.31406   -1.38982
       O    -9.06788   -0.36185   -1.49824
      H1    -9.85136   -0.08846   -1.01431
       H   -12.02511    0.78339   -6.39016
       O   -12.71010    1.42439   -6.56843
      H1   -12.58649    1.66217   -7.49751
       H   -10.02068   -0.66090   -6.58699
       O   -10.48229   -0.43885   -5.79214
      H1   -10.63647   -1.28298   -5.38483
       H   -11.00532    1.00735   -8.55910
       O   -11.55005    1.66907   -8.97645
      H1   -12.39986    1.25138   -9.06192
       H   -10.76939    0.54519   -4.47614
       O   -10.74624    1.04603   -3.63566
      H1   -10.13597    0.56150   -3.08657
       H   -14.75276    0.06933   -5.08809
       O   -14.94892   -0.46041   -5.87807
      H1   -14.18861   -0.29788   -6.45508
       H    -9.06498   -0.70964   -8.78191
       O    -9.32182    0.10986   -8.34856
      H1    -8.67546    0.77115   -8.63122
       H    -7.97293    1.40852   -4.64002
       O    -8.30070    1.68957   -5.51777
      H1    -9.02410    1.07965   -5.71103
       H   -10.58897   -3.40221   -4.19575
       O   -10.70401   -2.49517   -3.88586
      H1   -10.82974   -2.61932   -2.93652
       H    -8.26152    2.14972   -7.23232
       O    -7.81006    2.25183   -8.10098
      H1    -8.21791    3.03750   -8.51036
       H   -13.79374    1.37213   -2.43333
       O   -13.90599    0.40926   -2.34227
      H1   -14.83584    0.20449   -2.55498

