60
frame 2 | Written by MDAnalysis XYZWriter (release 2.4.3)
       H   -11.19340  -14.86969   -7.24218
       O   -11.28891  -14.99793   -8.20625
      H1   -12.22568  -15.15468   -8.30802
       H   -10.80967  -13.02320   -5.57009
       O   -11.23912  -12.17091   -5.70928
      H1   -12.14337  -12.40494   -5.97949
       H   -13.14797  -11.90456   -2.92247
       O   -12.31517  -11.57312   -3.16735
      H1   -12.13867  -11.80141   -4.08563
       H   -12.18730  -17.81908   -5.07419
       O   -11.59611  -18.51360   -5.37273
      H1   -12.18101  -19.10661   -5.87078
       H    -7.37872  -12.53853   -2.77650
       O    -7.45942  -13.40985   -3.17538
      H1    -7.16262  -14.04012   -2.53484
       H   -11.72589  -15.30181   -3.15065
       O   -10.79535  -15.29491   -2.88654
      H1   -10.68577  -14.42615   -2.51546
       H    -8.00265  -13.13595   -9.36374
       O    -7.83270  -12.98336   -8.40150
      H1    -8.67291  -12.62162   -8.11304
       H   -11.36516  -17.90962   -6.91333
       O   -11.61137  -17.57889   -7.75879
      H1   -11.39315  -16.63070   -7.77881
       H    -8.58130  -16.43878   -1.77890
       O    -7.77272  -16.22929   -2.26988
      H1    -7.40061  -17.07283   -2.61964
       H   -11.47320  -12.53672   -1.96661
       O   -10.91916  -12.90079   -1.26569
      H1   -11.52218  -13.17702   -0.54526
       H    -9.11596  -17.48427   -9.55921
       O    -9.68980  -17.54333  -10.32825
      H1   -10.56157  -17.36301   -9.98865
       H    -7.16392  -15.50698   -7.03664
       O    -7.41505  -14.72626   -6.57728
      H1    -7.62501  -14.08304   -7.27326
       H    -4.85166  -15.05281   -4.40267
       O    -4.85293  -14.88177   -5.36764
      H1    -5.79190  -14.65508   -5.52447
       H   -11.05702  -13.92477   -9.51676
       O   -11.02417  -13.18894  -10.13043
      H1   -11.48362  -13.45619  -10.90829
       H    -7.47885  -18.32229   -6.90188
       O    -7.52142  -18.67644   -6.00188
      H1    -6.90608  -18.08779   -5.49434
       H   -10.12857  -15.24067   -4.80266
       O   -10.18492  -15.03012   -5.74662
      H1    -9.27480  -15.06324   -6.09592
       H   -14.17231  -15.01157   -2.90939
       O   -13.91582  -14.14143   -3.18379
      H1   -14.22570  -13.62560   -2.40732
       H   -10.24125  -11.37407   -7.02697
       O    -9.97042  -11.36353   -7.96616
      H1   -10.68238  -11.79965   -8.36945
       H    -8.23738  -11.17099   -4.60236
       O    -8.38120  -11.78720   -5.31518
      H1    -8.57580  -12.58080   -4.82769
       H    -9.51281  -18.22392   -1.53627
       O    -9.93523  -17.43611   -1.20350
      H1   -10.45871  -17.15870   -1.92132

