60
frame 2 | Written by MDAnalysis XYZWriter (release 2.4.3)
       H    -4.78584   18.16175    1.83196
       O    -4.72380   17.37636    2.43676
      H1    -4.44068   17.70782    3.28252
       H    -4.27443   18.07323    7.69895
       O    -4.04413   17.94697    8.60365
      H1    -4.76982   18.36333    9.08324
       H    -1.55501   14.38714   10.53204
       O    -0.81781   13.79294   10.76377
      H1    -0.88366   13.06803   10.11988
       H    -3.33453   16.31048   10.16272
       O    -3.40295   15.40996   10.44802
      H1    -4.04544   15.37278   11.14298
       H    -4.57746   11.94596    5.51876
       O    -4.97471   11.56765    6.28539
      H1    -5.35655   10.75898    5.90509
       H     1.46938   18.89652    4.50551
       O     2.18402   18.35672    4.84761
      H1     2.25417   18.66031    5.75640
       H    -3.54692   16.20531    1.80325
       O    -2.89794   15.78873    1.23384
      H1    -2.26915   15.37518    1.83417
       H    -3.62260   14.59512    5.54018
       O    -2.68603   14.58369    5.76004
      H1    -2.69724   13.98043    6.51868
       H    -6.06692   12.84715    7.06386
       O    -6.76606   13.41152    7.44481
      H1    -7.49598   12.83537    7.72128
       H    -0.11731   17.79434   10.46813
       O     0.78802   17.63228   10.12706
      H1     0.58525   17.25985    9.22317
       H    -4.97082   16.98543    5.16816
       O    -4.69340   17.88968    5.38378
      H1    -5.55184   18.33652    5.38070
       H    -0.32534   15.34513    3.70946
       O    -1.08242   14.85338    3.36851
      H1    -1.57003   14.58074    4.17993
       H    -3.40810   12.79033    8.53725
       O    -2.92509   13.58111    8.33689
      H1    -3.02083   14.18918    9.08185
       H    -1.78885   17.88056    4.24437
       O    -1.99922   18.71162    3.76610
      H1    -1.65367   18.51263    2.88671
       H    -2.48613   16.35974    6.23502
       O    -2.23961   17.28868    6.10284
      H1    -3.07264   17.72149    5.82735
       H    -0.88456   17.02160    7.39774
       O     0.07399   16.92741    7.55969
      H1     0.25120   16.10583    7.11885
       H     1.50860   15.20651    5.62069
       O     1.36207   14.66586    6.43500
      H1     2.20795   14.60840    6.86996
       H    -5.57000   14.87344    4.25692
       O    -5.31654   15.13228    5.16063
      H1    -6.18560   15.10228    5.57377
       H     1.45472   16.16957    3.11817
       O     1.58088   15.95759    4.06854
      H1     1.89621   16.77244    4.41954
       H    -0.54625   10.98772    8.49754
       O    -1.09504   11.45643    9.16508
      H1    -1.74860   11.95003    8.67076

