60
frame 2 | Written by MDAnalysis XYZWriter (release 2.4.3)
       H    13.25139  -14.51011   -1.14367
       O    12.72536  -14.78602   -1.91796
      H1    12.48752  -13.94004   -2.30775
       H    18.67971  -15.72652    1.61905
       O    18.75637  -16.19196    0.77781
      H1    18.12517  -16.95573    0.90935
       H    15.13443  -14.36790    1.83767
       O    15.86129  -14.48662    2.46624
      H1    16.62949  -14.05907    2.02977
       H    14.63173  -12.36819   -0.11663
       O    15.51203  -12.52394   -0.50138
      H1    15.65349  -13.47906   -0.31459
       H    16.94382  -10.03364   -0.40208
       O    17.83417  -10.36405   -0.31064
      H1    18.36874   -9.57320   -0.20430
       H    14.27613  -15.57501   -2.39826
       O    15.10643  -16.01417   -2.73982
      H1    14.99920  -16.93179   -2.47934
       H    16.03319  -15.47040   -1.36212
       O    16.34101  -15.08898   -0.52740
      H1    16.89417  -15.78706   -0.14917
       H    13.62667  -12.64293   -4.00766
       O    12.97631  -12.32185   -3.37369
      H1    12.15197  -12.68252   -3.72025
       H    17.73860  -17.33709   -1.75752
       O    18.21518  -16.66621   -2.25976
      H1    19.14302  -16.74916   -1.97271
       H    16.92554  -18.96906   -0.56068
       O    16.84309  -18.05140   -0.26490
      H1    15.96742  -18.13227    0.18712
       H    14.19044  -16.03424   -4.64409
       O    13.40340  -15.92368   -5.16235
      H1    12.80696  -16.52878   -4.72749
       H    15.58237  -12.76298   -4.70267
       O    14.91001  -13.35198   -5.13069
      H1    15.14661  -13.21949   -6.06122
       H    15.59645  -17.40844   -6.28107
       O    16.08927  -17.58030   -5.45372
      H1    16.49881  -16.70958   -5.23687
       H    16.09100  -12.88221   -2.32137
       O    16.61815  -12.65336   -3.10878
      H1    17.23724  -11.99358   -2.80558
       H    17.86098   -8.94923   -3.69673
       O    17.40663   -8.15423   -4.05642
      H1    16.48820   -8.41769   -4.10542
       H    17.83946  -12.40755    0.66862
       O    18.09523  -13.24590    1.11304
      H1    19.00298  -13.07987    1.43688
       H    19.15061  -10.69490   -3.09905
       O    18.21687  -10.44160   -3.04908
      H1    18.08771  -10.28133   -2.10940
       H    14.33254  -10.73805   -1.90870
       O    13.88961  -10.00513   -2.37903
      H1    13.30827  -10.47267   -2.97136
       H    17.62348  -13.60382   -2.07599
       O    18.46228  -13.77969   -1.60291
      H1    18.16199  -14.26746   -0.81728
       H    17.27247  -15.73951   -3.79747
       O    17.50704  -15.31368   -4.62083
      H1    16.87891  -14.58416   -4.64383

