60
frame 2 | Written by MDAnalysis XYZWriter (release 2.4.3)
       H    15.13456   -3.57130   -2.40163
       O    15.65166   -3.97889   -1.63634
      H1    15.70435   -4.89680   -1.89037
       H    12.91624   -6.48985   -2.03555
       O    12.45981   -6.01373   -2.75869
      H1    13.21915   -5.77544   -3.29630
       H    14.63173  -12.36819   -0.11663
       O    15.51203  -12.52394   -0.50138
      H1    15.65349  -13.47906   -0.31459
       H    13.21956   -7.53538    0.15151
       O    12.55272   -6.83375    0.02567
      H1    11.81303   -7.31505   -0.30065
       H    16.94382  -10.03364   -0.40208
       O    17.83417  -10.36405   -0.31064
      H1    18.36874   -9.57320   -0.20430
       H    11.85464   -5.85545    1.44331
       O    11.45411   -5.00732    1.68009
      H1    11.32608   -4.56444    0.80799
       H    18.05347   -9.67171    3.03994
       O    18.68262  -10.31136    2.67410
      H1    18.51825  -10.34144    1.71836
       H    17.42724   -4.32052    1.41990
       O    16.55257   -4.63916    1.25958
      H1    16.09819   -4.58795    2.10928
       H    18.54033   -6.03535   -0.18646
       O    18.09474   -6.79122    0.16957
      H1    17.60807   -6.49252    0.92182
       H    12.71365  -11.09766    1.42918
       O    13.18070  -11.60336    0.76589
      H1    12.51819  -12.16660    0.39691
       H    14.98386   -9.30625    1.93710
       O    15.51282   -9.19038    2.72101
      H1    15.74351  -10.09809    2.94913
       H    10.43501   -9.36532   -0.55980
       O    11.36022   -9.11465   -0.45782
      H1    11.75968   -9.96391   -0.25669
       H    14.55861   -9.08297   -0.77061
       O    15.05486   -8.51127   -0.20284
      H1    15.44653   -7.80747   -0.71364
       H    17.86098   -8.94923   -3.69673
       O    17.40663   -8.15423   -4.05642
      H1    16.48820   -8.41769   -4.10542
       H    17.11526   -7.01050   -1.27636
       O    16.38737   -6.83898   -1.92620
      H1    16.80317   -7.17341   -2.72137
       H    14.26108   -3.66573   -0.25370
       O    13.62321   -3.21663    0.31274
      H1    13.83950   -3.59395    1.16691
       H    19.15061  -10.69490   -3.09905
       O    18.21687  -10.44160   -3.04908
      H1    18.08771  -10.28133   -2.10940
       H    14.33254  -10.73805   -1.90870
       O    13.88961  -10.00513   -2.37903
      H1    13.30827  -10.47267   -2.97136
       H    14.96289   -6.34806   -4.54949
       O    14.60732   -5.47320   -4.47659
      H1    15.07089   -4.94402   -5.12713
       H    14.19745   -8.71440   -3.56201
       O    14.62213   -8.23679   -4.26354
      H1    14.85546   -8.95258   -4.84095

