60
frame 2 | Written by MDAnalysis XYZWriter (release 2.4.3)
       H    -9.01483   -9.76419    1.80525
       O    -8.94990  -10.55536    2.34476
      H1    -8.89228  -11.23304    1.66590
       H    -7.37872  -12.53853   -2.77650
       O    -7.45942  -13.40985   -3.17538
      H1    -7.16262  -14.04012   -2.53484
       H   -11.72589  -15.30181   -3.15065
       O   -10.79535  -15.29491   -2.88654
      H1   -10.68577  -14.42615   -2.51546
       H   -12.52445  -11.77790    2.05189
       O   -13.20371  -11.08700    2.01630
      H1   -13.48508  -10.86279    2.91991
       H   -10.69780  -11.94488    4.61680
       O   -10.99564  -11.33445    3.93530
      H1   -10.28639  -11.37540    3.29822
       H   -10.55799   -9.35716   -1.56718
       O    -9.93787  -10.02310   -1.25594
      H1   -10.36722  -10.84697   -1.44880
       H   -11.74700   -9.75248    0.43622
       O   -11.59186   -8.91337    0.83443
      H1   -11.78220   -9.11525    1.77504
       H   -13.51195  -14.38782    0.43329
       O   -12.54420  -14.30560    0.49779
      H1   -12.32625  -14.84490   -0.29948
       H    -6.34525  -13.63289    2.82181
       O    -6.45869  -13.11265    3.61484
      H1    -5.63316  -12.63389    3.69044
       H   -10.59677  -14.11525    3.18636
       O   -11.48603  -14.53152    3.18779
      H1   -11.81093  -14.47277    2.27081
       H    -9.24698  -10.89673    5.32245
       O    -8.35516  -10.75669    4.98113
      H1    -8.46970  -10.66257    4.02980
       H    -8.58130  -16.43878   -1.77890
       O    -7.77272  -16.22929   -2.26988
      H1    -7.40061  -17.07283   -2.61964
       H   -11.47320  -12.53672   -1.96661
       O   -10.91916  -12.90079   -1.26569
      H1   -11.52218  -13.17702   -0.54526
       H    -8.05761  -13.90348    4.02767
       O    -8.93503  -14.23000    4.32083
      H1    -9.07679  -13.83961    5.20777
       H    -8.07911  -16.54699    1.04458
       O    -7.27030  -16.25277    0.57013
      H1    -7.57915  -15.88585   -0.27693
       H    -6.01686  -11.42948    1.95675
       O    -6.25930  -11.64253    1.04209
      H1    -5.93121  -10.86095    0.55997
       H    -8.50851   -8.11259   -0.02683
       O    -8.84326   -8.34967    0.83740
      H1    -9.78575   -8.56856    0.66551
       H    -4.51055  -14.19961    0.50960
       O    -4.48117  -13.74779   -0.36113
      H1    -5.07167  -13.00088   -0.20751
       H    -5.77227  -11.09475   -2.24779
       O    -6.67072  -11.02757   -1.87838
      H1    -7.10970  -10.40963   -2.47508
       H    -8.05563  -12.03225    0.47507
       O    -8.80476  -12.64386    0.54332
      H1    -9.32738  -12.46907   -0.26666

