60
frame 2 | Written by MDAnalysis XYZWriter (release 2.4.3)
       H     2.72358   17.18044   -4.52156
       O     3.26908   17.05789   -3.72405
      H1     4.09957   16.75005   -4.07429
       H     6.25304   10.63472   -2.29128
       O     7.20059   10.45126   -2.25281
      H1     7.36079   10.27673   -1.31880
       H    11.00179   12.73848   -2.62689
       O    10.16882   12.26712   -2.67202
      H1     9.57987   12.73335   -2.03921
       H     2.97643   13.72635   -2.90693
       O     3.49774   13.14187   -2.32649
      H1     4.37705   13.20532   -2.68627
       H    11.53144   14.82312   -5.43448
       O    12.12601   15.55461   -5.45580
      H1    11.73025   16.15073   -6.08980
       H     5.85050   16.25679   -1.40879
       O     6.55422   16.32114   -2.07233
      H1     6.92503   17.21547   -1.93000
       H     8.06711   11.36805   -5.98990
       O     8.15952   11.03335   -6.92024
      H1     8.33194   10.07142   -6.90329
       H     6.39509   13.39276   -0.46331
       O     6.09622   13.25280    0.44595
      H1     6.41557   13.99618    0.93762
       H     4.53274   12.56514   -5.09141
       O     5.16793   12.84155   -4.40625
      H1     5.95662   12.93355   -4.93677
       H     8.83579   14.55699   -0.48288
       O     8.50718   13.89572   -1.10088
      H1     8.39364   14.41041   -1.91107
       H    10.90231   16.14206   -4.03564
       O    10.13858   16.30197   -3.50527
      H1     9.44455   15.71670   -3.83081
       H     8.56083   18.99454   -4.85574
       O     9.42378   18.96548   -4.37021
      H1     9.51912   17.99296   -4.20002
       H    10.40749   13.02907   -4.39793
       O    10.28579   13.45024   -5.25292
      H1    10.63970   12.79403   -5.83945
       H     5.89004    9.40203   -5.77262
       O     6.03575    9.89994   -4.96967
      H1     5.19894    9.93659   -4.50431
       H     6.13806   14.74516   -7.42240
       O     6.26711   14.19940   -6.62798
      H1     7.22974   14.06875   -6.66053
       H     5.83260   16.11799   -6.00370
       O     5.54549   16.73840   -5.31903
      H1     4.96703   17.33660   -5.82048
       H     8.75675   12.18274   -4.23955
       O     7.83535   12.17009   -4.46528
      H1     7.45909   11.68322   -3.71742
       H    10.14653   11.79424    0.50982
       O    10.40980   11.13762   -0.14404
      H1    10.22075   11.57964   -0.98679
       H     5.09109   13.19700   -7.58228
       O     4.71505   12.71670   -8.31607
      H1     5.06088   11.84784   -8.11372
       H     7.01552   15.14407   -3.47320
       O     7.87253   14.75738   -3.69812
      H1     7.63771   13.87441   -4.02215

