60
frame 2 | Written by MDAnalysis XYZWriter (release 2.4.3)
       H    -7.05494  -11.21218  -11.52311
       O    -7.57295  -11.84578  -11.02122
      H1    -7.13247  -11.81285  -10.18026
       H    -4.50176   -9.03138   -5.67241
       O    -5.27872   -8.61449   -5.29794
      H1    -5.71072   -8.27134   -6.06487
       H    -1.39770   -5.91191   -9.64335
       O    -1.72360   -6.80869   -9.72234
      H1    -1.34649   -7.17313  -10.54958
       H    -2.75636   -8.45936  -14.80188
       O    -3.58603   -7.95346  -14.65826
      H1    -3.52479   -7.79961  -13.69981
       H    -4.27908   -4.97846  -11.23546
       O    -4.03015   -5.07159  -10.34146
      H1    -3.35768   -5.76007  -10.30452
       H    -7.20707   -7.17117  -12.47768
       O    -7.35435   -7.16646  -11.51637
      H1    -8.03893   -7.81712  -11.34010
       H    -8.99732   -5.44049  -10.00193
       O    -8.39537   -4.85844  -10.50913
      H1    -8.00251   -5.57155  -11.04427
       H    -4.21995   -6.34664   -7.39396
       O    -4.99289   -6.31841   -7.93127
      H1    -4.85059   -5.56307   -8.54659
       H    -7.20684   -9.28116  -13.17177
       O    -6.57505   -9.85770  -12.72534
      H1    -6.09333  -10.28444  -13.43666
       H    -9.30863   -9.20249   -9.89923
       O    -9.16087   -9.38577  -10.83307
      H1    -8.42580  -10.04037  -10.83872
       H    -6.90504  -11.68235   -6.21476
       O    -6.05699  -11.47745   -6.61504
      H1    -6.15505  -11.88718   -7.47432
       H    -6.73180   -9.06916   -8.50814
       O    -7.21407   -9.07104   -7.67282
      H1    -6.78698   -9.83815   -7.23988
       H    -4.69590   -2.70994   -8.64042
       O    -5.42425   -3.38824   -8.71269
      H1    -5.07802   -3.93625   -9.45949
       H    -5.68326  -10.12506   -9.90032
       O    -5.53897  -11.01985   -9.56907
      H1    -4.71904  -11.25322  -10.04933
       H    -1.14987   -8.12900   -8.61867
       O    -0.57808   -8.72402   -8.11399
      H1    -1.12039   -9.45429   -7.72431
       H    -3.70336  -11.97002  -11.81054
       O    -3.30117  -11.44372  -11.11193
      H1    -3.33819  -10.52119  -11.47055
       H    -4.77769  -13.75430   -7.21207
       O    -4.53182  -13.54547   -8.12308
      H1    -4.34390  -12.59165   -8.14839
       H    -4.81015   -9.06728  -12.53945
       O    -3.94532   -8.78668  -12.19050
      H1    -4.19436   -8.32039  -11.39495
       H   -10.26932   -9.81079   -7.57231
       O   -10.07192   -8.86648   -7.56188
      H1    -9.10350   -8.80216   -7.44860
       H    -6.07103   -8.02961  -10.55126
       O    -5.50509   -8.39901   -9.83866
      H1    -5.44177   -7.62796   -9.26596

