60
frame 2 | Written by MDAnalysis XYZWriter (release 2.4.3)
       H     9.37030   -7.02410  -12.23877
       O     8.47025   -7.14381  -11.95979
      H1     8.20539   -6.38040  -11.44995
       H    11.97361  -10.39244  -19.31471
       O    11.70457  -10.07887  -18.46394
      H1    10.80266  -10.37752  -18.40063
       H     9.85666   -8.53467  -10.43143
       O    10.76163   -8.73683  -10.68901
      H1    10.74109   -8.91482  -11.62720
       H    10.55894  -10.01061  -14.89036
       O     9.83387   -9.39465  -15.00019
      H1     9.96087   -9.15291  -15.92818
       H    13.38967  -12.26192  -17.33440
       O    12.69726  -11.99313  -16.72140
      H1    12.34385  -11.20433  -17.17863
       H     5.98175   -7.45753  -15.96885
       O     5.30376   -6.83994  -15.71279
      H1     5.72481   -6.17165  -15.16087
       H    12.87889   -5.58848  -14.43898
       O    12.18028   -5.73337  -15.11125
      H1    11.39110   -5.39205  -14.68500
       H     8.95515  -12.36596  -15.21219
       O     8.56385  -11.75040  -15.82694
      H1     8.56037  -10.88561  -15.37228
       H     7.80783   -5.49090  -15.71888
       O     8.13947   -6.02275  -14.98443
      H1     8.56832   -6.80565  -15.34999
       H    11.86603   -7.40875  -13.15901
       O    10.95088   -7.73559  -13.26517
      H1    11.03033   -8.32593  -14.03935
       H     9.03602  -11.48228  -17.47393
       O     9.32791  -11.28730  -18.38760
      H1     9.22070  -12.11799  -18.87669
       H     9.16920   -8.20594  -18.04629
       O     9.80871   -7.84775  -17.41095
      H1    10.40108   -7.38260  -17.99942
       H    13.32729   -9.52952  -14.77913
       O    13.56194  -10.05922  -14.02432
      H1    14.09487   -9.38978  -13.51138
       H     8.83433  -10.59721  -12.27909
       O     8.00288  -11.02447  -12.18952
      H1     7.49782  -10.72184  -12.93722
       H    11.96861  -10.41841  -13.23288
       O    11.10893  -10.53391  -12.86222
      H1    11.13989  -11.43185  -12.53370
       H     6.81340  -12.16186  -15.11267
       O     6.39425  -12.29696  -14.27207
      H1     5.72907  -12.95370  -14.50818
       H     9.47828   -5.27570  -13.77577
       O    10.05765   -4.64480  -13.32714
      H1    10.58264   -5.17471  -12.69297
       H    12.38230   -7.44550  -15.64726
       O    12.40313   -8.33899  -15.97203
      H1    12.27615   -8.21707  -16.92801
       H     6.84055   -9.10361  -16.95619
       O     6.13205   -9.40134  -16.36001
      H1     6.44516   -9.27423  -15.43506
       H     8.54026   -8.77328  -14.27666
       O     7.57759   -8.67785  -14.14238
      H1     7.55375   -7.82290  -13.69878

