60
frame 2 | Written by MDAnalysis XYZWriter (release 2.4.3)
       H    12.89182    4.68276    1.69467
       O    12.36206    4.20127    2.36441
      H1    13.05438    4.08361    3.06314
       H    19.01558    5.24294    0.78385
       O    18.71080    5.73026    0.02342
      H1    18.85538    6.62036    0.34615
       H    14.14406    6.87647    3.59835
       O    13.56616    6.62534    4.31713
      H1    14.02592    6.98482    5.12692
       H    12.58052    6.97060   -0.01279
       O    13.47921    6.73544   -0.30966
      H1    13.47142    5.76241   -0.37043
       H    15.15249    4.28657   -2.63760
       O    15.33750    3.42163   -2.17822
      H1    15.53700    2.83845   -2.92823
       H    17.20719    9.41689    0.78416
       O    17.79507   10.14145    0.97339
      H1    17.40095   10.43960    1.79145
       H    18.40075    5.59137    3.04022
       O    19.25136    5.20989    3.24762
      H1    19.12362    4.27527    3.19809
       H    17.24527    7.64733   -2.20646
       O    16.72093    7.01149   -1.70046
      H1    17.35990    6.32297   -1.46711
       H    14.92898    6.22164    0.91659
       O    15.41610    5.63220    1.52098
      H1    15.72164    4.90839    0.96571
       H    18.89133    2.64413    1.78271
       O    18.22237    2.73336    2.47006
      H1    17.39962    2.94420    2.00474
       H    16.97505    4.10089   -1.62270
       O    17.85376    4.22055   -2.00502
      H1    18.39660    4.59658   -1.26566
       H    12.94938   10.24794    1.43297
       O    12.76108    9.30627    1.44055
      H1    12.28920    9.13553    2.26102
       H    16.44743    6.76480    2.30623
       O    17.23524    7.13082    2.76639
      H1    16.94801    8.00003    3.00608
       H    13.72431    6.43718   -2.37130
       O    14.46632    5.97442   -2.78385
      H1    15.27313    6.43290   -2.51658
       H    14.34569    1.57628    1.64484
       O    14.27394    1.83874    0.70761
      H1    13.72816    2.64293    0.70732
       H    11.16997    5.40679    1.67426
       O    10.93540    6.15354    1.07547
      H1    10.99895    6.93639    1.65284
       H    14.15940    4.84124    4.67591
       O    14.36667    3.94587    4.36765
      H1    15.02988    3.61986    4.98075
       H    15.65474    2.72232    0.75128
       O    16.36562    3.36384    0.59371
      H1    16.75496    2.98862   -0.21335
       H    14.06083    3.87678   -1.02836
       O    13.30909    4.17441   -0.51557
      H1    12.61047    4.28437   -1.20397
       H    15.34871    7.83641   -0.03058
       O    15.41509    8.58147    0.58481
      H1    14.49616    8.82337    0.77738

