60
frame 2 | Written by MDAnalysis XYZWriter (release 2.4.3)
       H     8.57381    3.61348   12.11577
       O     9.34914    3.07219   11.84608
      H1     8.91932    2.52184   11.15993
       H     5.31477   -1.12280    9.97731
       O     5.94596   -1.30981   10.67744
      H1     5.41604   -1.30385   11.51143
       H     9.21417    0.48616   13.84323
       O    10.11417    0.71466   14.01579
      H1    10.08573    1.66553   13.90156
       H     6.95643   -2.73531   11.40826
       O     7.44206   -3.41764   11.93426
      H1     6.94454   -4.21763   11.83523
       H     4.23102    3.18732   12.02516
       O     4.89087    2.49485   11.74591
      H1     4.86779    1.94150   12.51875
       H     3.12476   -1.73729   12.38732
       O     3.68891   -0.98171   12.49212
      H1     3.22863   -0.32570   11.99069
       H     7.55957    0.50816   11.20723
       O     7.82426    1.13055   10.51736
      H1     6.97934    1.49150   10.21772
       H    10.67006    0.30906   12.21364
       O    10.67213   -0.01776   11.32435
      H1    11.62133   -0.11720   11.15200
       H     3.01467    1.60161   11.29690
       O     2.26799    0.98800   11.24223
      H1     1.54937    1.65164   11.29651
       H     7.92549   -2.61446    9.23535
       O     7.53294   -3.04849    8.43757
      H1     6.64490   -2.66945    8.40401
       H    10.69520    1.23453   10.10765
       O    11.18568    1.54951    9.33782
      H1    10.84110    0.96590    8.61397
       H     6.60477    4.97535   11.44485
       O     6.74112    4.18677   11.98100
      H1     6.11505    3.52933   11.68828
       H     5.33870    0.30292   14.07737
       O     5.79823    1.15352   14.01120
      H1     5.83680    1.44816   14.94048
       H     5.23976    1.89206    9.95935
       O     5.38625    1.57776    9.05194
      H1     4.80566    2.15365    8.52918
       H    10.19306   -0.80120   14.69248
       O    10.37429   -1.60930   15.20962
      H1    10.43260   -2.27147   14.48303
       H     8.07909    0.72225    7.32951
       O     8.75659    1.36721    7.59843
      H1     8.53251    1.56046    8.51493
       H     7.65387   -1.13001   13.53508
       O     7.78578   -0.19992   13.23715
      H1     7.06969    0.29099   13.64330
       H     5.10128    0.00091    8.02630
       O     5.06592   -0.95634    8.03475
      H1     5.71422   -1.16575    7.31639
       H     7.67136   -3.19082   13.70039
       O     7.70832   -2.64558   14.52444
      H1     8.67612   -2.56626   14.66415
       H     9.71773   -1.34831   10.82505
       O     9.34648   -2.06495   10.31815
      H1     8.88860   -2.53643   11.02199

