60
frame 2 | Written by MDAnalysis XYZWriter (release 2.4.3)
       H   -14.44041   15.46788  -15.53887
       O   -14.62437   16.40764  -15.36977
      H1   -15.41228   16.38456  -14.82101
       H    -6.24898   13.41020  -13.35497
       O    -6.89997   12.70609  -13.27940
      H1    -7.58632   13.10797  -12.74070
       H   -13.20865   15.69554  -18.39017
       O   -13.63556   14.82194  -18.33307
      H1   -14.52107   15.07624  -18.53223
       H   -13.25083   14.30157  -16.56828
       O   -13.66181   13.97216  -15.72669
      H1   -12.92137   14.00490  -15.08683
       H   -11.35122   15.32061  -14.42467
       O   -10.95658   14.46515  -14.56323
      H1   -10.54241   14.56811  -15.43578
       H   -10.71958   12.66373  -17.31422
       O    -9.82521   12.34568  -17.36198
      H1    -9.97295   11.39769  -17.36802
       H    -7.20079   16.76154  -15.78716
       O    -7.48665   15.91241  -16.12242
      H1    -6.61907   15.52491  -16.34653
       H   -12.17528   12.87276  -11.41916
       O   -12.76485   13.31926  -10.82500
      H1   -12.50329   12.90575   -9.96761
       H   -11.52918   10.39998  -17.39538
       O   -12.19374   11.05779  -17.51268
      H1   -12.56168   11.15859  -16.62660
       H   -13.29929   14.77532  -12.57230
       O   -13.99663   15.36938  -12.81844
      H1   -13.76369   15.60798  -13.72479
       H    -6.77957   11.51682  -17.32713
       O    -7.22780   12.05601  -16.63802
      H1    -8.15523   12.08146  -16.96642
       H   -14.40372   11.89095  -15.75468
       O   -14.59044   11.01700  -16.01753
      H1   -15.40547   11.07487  -16.55741
       H   -10.45079   15.40112  -18.06546
       O    -9.97516   15.28035  -17.24754
      H1    -9.04046   15.26987  -17.52500
       H   -10.79033   18.63926  -11.23405
       O   -10.64518   18.08881  -12.01279
      H1   -11.50275   17.70295  -12.28048
       H   -12.08559   10.61809  -14.25474
       O   -12.31301   11.55453  -14.42105
      H1   -11.47647   11.97332  -14.13450
       H    -9.79951   16.87195  -11.37386
       O    -9.67721   15.96602  -11.02654
      H1    -8.72712   15.80867  -11.05444
       H   -10.00886   16.87088  -16.51032
       O    -9.99177   17.72996  -16.05984
      H1    -9.05186   17.81470  -15.76262
       H   -11.22194   17.35830  -14.66469
       O   -11.98609   17.00574  -14.15969
      H1   -12.74684   17.60929  -14.38242
       H    -9.74527   14.20161  -11.56117
       O    -9.69992   13.38092  -12.07020
      H1    -9.95131   13.65444  -12.96787
       H    -8.40611   12.19628  -14.41014
       O    -9.26504   11.75742  -14.53199
      H1    -9.49965   11.93350  -15.45050

