60
frame 2 | Written by MDAnalysis XYZWriter (release 2.4.3)
       H    11.96806   -9.95974   -7.16118
       O    12.18052  -10.87498   -7.33168
      H1    12.26600  -10.91691   -8.30310
       H    12.91624   -6.48985   -2.03555
       O    12.45981   -6.01373   -2.75869
      H1    13.21915   -5.77544   -3.29630
       H    13.85760  -10.53510   -6.35999
       O    14.76451  -10.27043   -6.00755
      H1    15.12008   -9.66020   -6.66405
       H    13.13755  -10.88026  -10.59964
       O    13.00499  -10.06570  -10.08182
      H1    12.13335   -9.78630  -10.38638
       H    11.35797   -7.43314   -3.39663
       O    10.52580   -7.82669   -3.75912
      H1    10.68111   -8.76783   -3.72565
       H    17.44789   -3.50478   -7.48155
       O    17.17611   -4.44122   -7.62423
      H1    17.43694   -4.59631   -8.55246
       H    16.36993   -6.81496   -7.51717
       O    16.04451   -7.40543   -6.85203
      H1    15.09418   -7.22850   -6.79634
       H    10.81481   -8.18452   -5.58191
       O    11.04970   -8.39987   -6.49261
      H1    10.22171   -8.35863   -6.94834
       H    15.50912   -7.15378   -9.80912
       O    15.73199   -6.21812   -9.76530
      H1    14.92791   -5.78753   -9.40676
       H    17.86098   -8.94923   -3.69673
       O    17.40663   -8.15423   -4.05642
      H1    16.48820   -8.41769   -4.10542
       H    11.79065   -2.46076   -6.65094
       O    12.64051   -2.24335   -7.10748
      H1    12.85809   -3.11142   -7.48066
       H    14.29347   -2.43453   -5.72010
       O    15.15127   -2.68413   -5.36629
      H1    15.78797   -2.43048   -6.04497
       H    14.40230   -3.76560   -9.57150
       O    14.40518   -4.14411   -8.66440
      H1    15.36814   -4.21073   -8.48241
       H    11.21371   -5.13786   -5.69861
       O    11.60098   -4.91840   -6.53233
      H1    12.43471   -5.37263   -6.50424
       H    10.53153   -2.90880   -8.02808
       O    10.59051   -3.73817   -8.55406
      H1    10.78045   -4.42487   -7.87891
       H    14.78282   -9.57457   -9.84654
       O    15.35619   -8.85076  -10.11130
      H1    16.25464   -9.15968   -9.85673
       H    13.43471   -7.39847   -5.59061
       O    13.33647   -6.97408   -6.44416
      H1    12.55558   -7.40647   -6.81613
       H    17.86944   -5.68982   -6.33403
       O    18.53974   -6.30424   -5.94243
      H1    17.97727   -7.05513   -5.61374
       H    14.96289   -6.34806   -4.54949
       O    14.60732   -5.47320   -4.47659
      H1    15.07089   -4.94402   -5.12713
       H    14.19745   -8.71440   -3.56201
       O    14.62213   -8.23679   -4.26354
      H1    14.85546   -8.95258   -4.84095

