60
frame 2 | Written by MDAnalysis XYZWriter (release 2.4.3)
       H     0.54722  -13.45247    8.85318
       O     1.38942  -13.51564    9.30406
      H1     1.65078  -14.44780    9.24872
       H     3.50731  -15.41495    9.70917
       O     2.66881  -15.85843    9.50946
      H1     2.68043  -15.98386    8.53809
       H     7.22555  -16.48863    6.31569
       O     6.75144  -16.58791    5.49258
      H1     7.46460  -16.85531    4.90003
       H     5.42626  -18.72314    7.40494
       O     5.52583  -18.08464    8.11195
      H1     4.68207  -18.11686    8.52337
       H     5.18217  -16.86472    4.76557
       O     4.31413  -17.18555    4.49290
      H1     3.73403  -16.92324    5.22337
       H     2.69848  -10.95934    8.55070
       O     3.20367  -11.63938    8.08793
      H1     2.56812  -12.36504    7.92545
       H     2.84269  -17.61713    9.73892
       O     3.08371  -18.54828    9.99446
      H1     2.20238  -18.94252   10.09968
       H     2.53546  -15.78583    6.64295
       O     2.84500  -16.67725    6.86522
      H1     2.05543  -17.23761    6.87171
       H    -2.18671  -16.31851    4.78108
       O    -1.49091  -15.86737    4.28670
      H1    -1.75543  -15.89096    3.38398
       H     3.65104  -14.36967    6.66553
       O     2.76935  -14.04107    6.42589
      H1     2.55496  -14.41379    5.58636
       H    -0.30589  -18.31458    3.63884
       O     0.48181  -17.72830    3.62929
      H1     0.15907  -16.89500    4.01473
       H    -1.20394  -11.78169    8.22266
       O    -0.67522  -12.36177    7.66683
      H1    -1.29070  -13.05465    7.37996
       H     5.44056  -15.94363    9.94500
       O     5.41842  -15.05681    9.55879
      H1     5.93303  -15.09586    8.74268
       H     2.72892  -12.27849    5.56606
       O     2.95109  -11.34101    5.53168
      H1     3.05790  -11.19628    6.47739
       H     3.72863  -12.41224    9.72858
       O     4.12536  -12.78691   10.52850
      H1     4.57380  -13.59701   10.20782
       H     5.77073  -18.21344    2.05158
       O     5.54092  -17.27324    2.01521
      H1     5.03182  -17.14021    2.82539
       H     5.86789  -15.14378    6.39237
       O     5.82965  -14.37439    6.97380
      H1     6.55150  -13.80049    6.74053
       H     1.68931  -15.58592   12.52533
       O     1.16678  -16.08018   11.90104
      H1     1.70332  -16.10415   11.10935
       H     3.06745  -15.66606    3.49065
       O     2.47603  -15.12999    4.02144
      H1     1.72679  -14.96202    3.46415
       H    -0.51470  -17.73154    7.93295
       O     0.19833  -17.73040    7.30177
      H1     0.05483  -18.46794    6.69113

