60
frame 2 | Written by MDAnalysis XYZWriter (release 2.4.3)
       H    16.40168   15.65759   -9.83523
       O    17.08146   15.46738  -10.52934
      H1    16.81916   14.61033  -10.88309
       H    18.12959   12.04889   -7.15920
       O    17.76602   12.02547   -8.03094
      H1    18.08029   12.88209   -8.40477
       H    17.87817    9.08489  -10.79319
       O    17.83959    9.01104  -11.74760
      H1    16.96520    8.71338  -11.88198
       H    18.58443   11.68423  -13.27318
       O    18.11833   11.78139  -12.42671
      H1    17.97730   10.87626  -12.14103
       H    15.34287   13.47356  -12.58359
       O    15.96279   13.29389  -11.90642
      H1    16.55280   12.63275  -12.32383
       H    18.77052   15.16418   -7.83359
       O    18.74664   14.58256   -8.60271
      H1    18.34897   15.14432   -9.26546
       H    17.34858   10.60413   -9.03075
       O    17.13818    9.70733   -9.29596
      H1    17.15618    9.26792   -8.45150
       H    16.53131    6.44153  -11.21960
       O    16.24288    6.77522  -12.09044
      H1    15.34370    7.16116  -11.88161
       H    17.88349   14.07096  -13.70767
       O    18.45994   14.68970  -14.18257
      H1    18.18290   15.57617  -13.82919
       H    15.93271   12.74337   -6.47460
       O    15.93898   13.68558   -6.72970
      H1    16.48213   13.70684   -7.52716
       H    14.08513    8.97929   -8.32623
       O    14.41351    9.88307   -8.19358
      H1    15.25231    9.93607   -8.68021
       H    13.03945   11.64973  -10.75206
       O    13.12148   11.55004  -11.69768
      H1    13.75992   12.23636  -11.94833
       H    17.36215    9.46202  -16.12907
       O    17.74291   10.26571  -15.75800
      H1    17.58028   10.91229  -16.45436
       H    19.01435   11.86299  -17.59003
       O    18.28994   12.53603  -17.62457
      H1    17.60567   12.02170  -18.03526
       H    14.41137   12.87134  -17.08403
       O    14.33305   11.90151  -16.95969
      H1    14.71703   11.70855  -16.08182
       H    15.37178   10.71883  -14.27697
       O    15.51902   11.61693  -14.61542
      H1    16.33056   11.56818  -15.12538
       H    13.52133   10.13277  -13.37628
       O    14.15375    9.43411  -13.51666
      H1    13.52736    8.75256  -13.87818
       H    18.00693   17.06678  -12.65637
       O    17.15431   16.77601  -12.99476
      H1    16.83583   16.14127  -12.31136
       H    13.95533    8.53842  -11.98072
       O    13.87243    7.85331  -11.29545
      H1    13.20407    7.26346  -11.66505
       H    13.85589   13.28037  -14.24438
       O    13.60781   13.91815  -13.53727
      H1    13.46381   14.74537  -13.97681

