60
frame 2 | Written by MDAnalysis XYZWriter (release 2.4.3)
       H     6.07379   -1.08021   16.90116
       O     6.73611   -1.77667   16.89452
      H1     6.79515   -1.98158   15.95303
       H    14.17174   -1.29431   18.54479
       O    13.99615   -2.23356   18.37444
      H1    13.14411   -2.42114   18.78621
       H     9.21417    0.48616   13.84323
       O    10.11417    0.71466   14.01579
      H1    10.08573    1.66553   13.90156
       H    13.15653   -0.74201   16.50305
       O    12.99800   -0.60200   15.56396
      H1    12.11634   -0.98550   15.42864
       H    10.67006    0.30906   12.21364
       O    10.67213   -0.01776   11.32435
      H1    11.62133   -0.11720   11.15200
       H    11.40162   -3.30814   13.10239
       O    10.43228   -3.33439   13.12489
      H1    10.24222   -4.15686   12.66806
       H     8.23431   -1.09079   17.52349
       O     9.13265   -0.80157   17.65988
      H1     9.54881   -1.29508   16.96173
       H    13.22410   -3.41198   11.18002
       O    12.78089   -3.68128   12.01044
      H1    13.33996   -3.18702   12.64638
       H    13.71605   -3.83102   16.92914
       O    13.25292   -4.28309   16.21740
      H1    13.92857   -4.94615   15.92322
       H    10.30152   -2.95176   19.22307
       O    10.76161   -3.60266   18.66953
      H1    10.03059   -4.11020   18.33204
       H    11.87001    2.40963   15.04055
       O    12.77179    2.04768   15.03875
      H1    12.65925    1.10718   15.17684
       H    10.19306   -0.80120   14.69248
       O    10.37429   -1.60930   15.20962
      H1    10.43260   -2.27147   14.48303
       H     7.65387   -1.13001   13.53508
       O     7.78578   -0.19992   13.23715
      H1     7.06969    0.29099   13.64330
       H    14.61192   -3.14531   14.00491
       O    14.37111   -2.21297   13.87345
      H1    14.12781   -1.89238   14.73915
       H     7.32703   -3.12341   17.85123
       O     7.56168   -3.89061   18.41333
      H1     7.60822   -4.68826   17.85666
       H     7.55399   -5.65423   14.94599
       O     7.37553   -5.07770   15.68818
      H1     7.60868   -4.23192   15.32177
       H     7.67136   -3.19082   13.70039
       O     7.70832   -2.64558   14.52444
      H1     8.67612   -2.56626   14.66415
       H     8.00307    1.97700   17.10404
       O     8.89237    1.81933   17.42149
      H1     9.03196    0.91175   17.22695
       H    13.20656    0.82818   13.35940
       O    13.44410    0.18388   12.68045
      H1    13.57281   -0.63513   13.17752
       H     9.71773   -1.34831   10.82505
       O     9.34648   -2.06495   10.31815
      H1     8.88860   -2.53643   11.02199

