60
frame 2 | Written by MDAnalysis XYZWriter (release 2.4.3)
       H    15.47646   -6.16859    9.16092
       O    15.27194   -5.74293   10.02208
      H1    16.18272   -5.67358   10.41653
       H     9.81838   -8.08274   14.12488
       O    10.77401   -8.25380   14.08489
      H1    11.05378   -7.78432   14.87930
       H    14.36621   -3.32391    8.63161
       O    14.05516   -3.47477    9.54889
      H1    14.09148   -4.42228    9.67711
       H    13.27335   -7.90424    7.84506
       O    12.94166   -7.40156    8.57352
      H1    13.06142   -7.98083    9.30561
       H    10.75148   -9.87719   13.05364
       O    10.41941  -10.79102   12.99961
      H1     9.45926  -10.66144   12.89203
       H    10.42487   -5.85221   11.21798
       O    10.05856   -5.81804   12.12280
      H1    10.77399   -6.13974   12.66642
       H    11.50301   -4.49171    9.44827
       O    11.18418   -5.39428    9.44576
      H1    11.91623   -5.93567    9.21078
       H    11.40162   -3.30814   13.10239
       O    10.43228   -3.33439   13.12489
      H1    10.24222   -4.15686   12.66806
       H    17.17001   -4.92633   13.83741
       O    16.30910   -5.10609   13.38091
      H1    15.87504   -5.74243   13.98484
       H    15.67684   -8.53091   12.25846
       O    15.49737   -8.54111   11.31039
      H1    15.27518   -7.61092   11.18069
       H    11.02783   -8.47555   10.15262
       O    11.06298   -8.46516   11.13216
      H1    10.49446   -7.66897   11.32967
       H    10.91066   -2.54602    9.32893
       O    11.54085   -2.67371    8.60901
      H1    12.39933   -2.62822    9.07133
       H    13.22410   -3.41198   11.18002
       O    12.78089   -3.68128   12.01044
      H1    13.33996   -3.18702   12.64638
       H    13.71605   -3.83102   16.92914
       O    13.25292   -4.28309   16.21740
      H1    13.92857   -4.94615   15.92322
       H    15.38209   -8.82589   14.81048
       O    14.51573   -9.09150   15.11637
      H1    14.02041   -9.37832   14.34006
       H    10.77960   -6.34688   16.70771
       O    11.60172   -6.69562   16.32823
      H1    12.08905   -5.87934   16.11963
       H    15.38766   -6.38891   16.37892
       O    14.92531   -6.37961   15.52250
      H1    14.69134   -7.30365   15.32306
       H    15.94238   -3.78173   12.10569
       O    16.14432   -3.03002   11.50642
      H1    15.52227   -3.25190   10.80226
       H    12.79313   -7.43453   12.16408
       O    13.12403   -6.63749   12.64617
      H1    13.10931   -5.96465   11.95897
       H    14.61192   -3.14531   14.00491
       O    14.37111   -2.21297   13.87345
      H1    14.12781   -1.89238   14.73915

