60
frame 2 | Written by MDAnalysis XYZWriter (release 2.4.3)
       H    11.96806   -9.95974   -7.16118
       O    12.18052  -10.87498   -7.33168
      H1    12.26600  -10.91691   -8.30310
       H    13.25139  -14.51011   -1.14367
       O    12.72536  -14.78602   -1.91796
      H1    12.48752  -13.94004   -2.30775
       H    11.01197  -13.55216   -8.48063
       O    10.62525  -13.09815   -7.76768
      H1    11.07716  -12.24242   -7.78865
       H     8.82613  -13.16572   -7.45131
       O     8.08260  -12.74318   -6.98032
      H1     7.43053  -12.52134   -7.66329
       H    13.85760  -10.53510   -6.35999
       O    14.76451  -10.27043   -6.00755
      H1    15.12008   -9.66020   -6.66405
       H    10.57896  -11.29421   -5.15236
       O    10.57402  -10.71596   -4.37697
      H1    10.39363  -11.30137   -3.63904
       H     7.33756  -14.37939   -6.30290
       O     7.19171  -15.24769   -5.96398
      H1     8.09802  -15.62865   -5.90373
       H    11.18723  -13.62984   -6.19417
       O    11.22295  -13.79462   -5.24752
      H1    12.05552  -14.27148   -5.21731
       H     8.43145  -10.54930   -0.53220
       O     8.96938   -9.99395   -1.09583
      H1     8.41090   -9.22370   -1.29187
       H    11.35797   -7.43314   -3.39663
       O    10.52580   -7.82669   -3.75912
      H1    10.68111   -8.76783   -3.72565
       H     7.20864  -11.84223   -3.09899
       O     6.58510  -12.23847   -2.48415
      H1     5.88724  -11.55887   -2.44224
       H    13.62667  -12.64293   -4.00766
       O    12.97631  -12.32185   -3.37369
      H1    12.15197  -12.68252   -3.72025
       H     7.89997   -8.27058   -7.76823
       O     8.06950   -7.67370   -7.04998
      H1     7.73452   -8.19725   -6.30967
       H    10.81481   -8.18452   -5.58191
       O    11.04970   -8.39987   -6.49261
      H1    10.22171   -8.35863   -6.94834
       H     7.13335   -9.51770   -4.71719
       O     6.99615   -8.55363   -4.71574
      H1     6.06634   -8.44671   -4.49040
       H    10.14675  -12.90614   -1.73838
       O     9.89638  -13.04806   -2.67145
      H1     9.89552  -14.02956   -2.72091
       H    10.35942  -15.32051   -5.29969
       O     9.67124  -15.98278   -5.17541
      H1    10.01381  -16.76674   -5.64989
       H     8.66919  -11.26966   -4.35160
       O     7.78857  -11.20419   -4.75365
      H1     7.86902  -11.77916   -5.52285
       H    14.33254  -10.73805   -1.90870
       O    13.88961  -10.00513   -2.37903
      H1    13.30827  -10.47267   -2.97136
       H    13.43471   -7.39847   -5.59061
       O    13.33647   -6.97408   -6.44416
      H1    12.55558   -7.40647   -6.81613

