60
frame 2 | Written by MDAnalysis XYZWriter (release 2.4.3)
       H    -0.47346   -2.96147  -13.70369
       O    -0.94339   -2.13249  -13.57261
      H1    -0.41007   -1.72256  -12.87741
       H     0.32645   -1.97359  -16.88837
       O     1.15005   -2.32352  -17.20076
      H1     1.03066   -3.27740  -17.14375
       H    -3.58752   -2.29896  -15.35192
       O    -3.32974   -1.55351  -14.79035
      H1    -2.74793   -2.06620  -14.19623
       H     0.94677   -3.81002  -12.64898
       O     0.85609   -4.20058  -13.49778
      H1     1.70919   -4.01744  -13.92324
       H     4.24271   -1.10483  -11.07126
       O     3.39175   -1.49893  -11.35221
      H1     3.34026   -1.33442  -12.31598
       H     0.17003    0.03433  -15.30587
       O     0.96266    0.47206  -14.97456
      H1     1.51024    0.63618  -15.78473
       H    -3.30783   -1.43261  -19.05963
       O    -3.45908   -1.62066  -18.12831
      H1    -2.61027   -1.47684  -17.66743
       H    -0.85364   -5.12739  -13.33534
       O    -1.43862   -5.77566  -13.70008
      H1    -0.89130   -6.55785  -13.65342
       H    -4.59107    1.01915  -12.88382
       O    -3.70441    0.89650  -13.25424
      H1    -3.70436    0.04204  -13.67146
       H    -3.17346   -5.11752  -13.60693
       O    -3.84556   -4.61693  -13.09852
      H1    -4.65519   -4.78073  -13.58428
       H    -0.77505   -5.14122  -15.52588
       O    -0.94222   -4.72749  -16.36496
      H1    -0.40820   -5.20010  -16.99676
       H    -0.13903    0.33858  -11.98962
       O     0.56644   -0.33172  -12.11362
      H1     0.95709   -0.09222  -12.98382
       H    -0.29448    2.03606  -13.94888
       O    -0.75948    2.87052  -14.12630
      H1    -0.28040    3.48425  -13.54256
       H     0.68629   -0.79578   -9.48889
       O     1.63806   -0.73687   -9.44936
      H1     1.98567   -1.12445  -10.24491
       H    -2.22999   -1.54926  -10.46884
       O    -2.93108   -2.08094  -10.86792
      H1    -3.00447   -2.88348  -10.31438
       H     3.09105   -1.78628  -14.47891
       O     3.05163   -0.89295  -14.11832
      H1     2.24558   -0.54444  -14.51240
       H     0.39644   -1.89973  -11.06351
       O     0.47927   -2.84527  -11.04087
      H1     0.05901   -3.13431  -10.23444
       H    -1.65141    2.53714  -11.73814
       O    -1.64301    1.58012  -11.53812
      H1    -2.27633    1.19897  -12.17243
       H    -1.80001   -1.28750  -15.82855
       O    -1.12360   -0.96545  -16.41813
      H1    -1.51475   -0.20908  -16.90796
       H     1.78521   -7.21272  -14.07309
       O     1.02688   -6.77602  -14.48259
      H1     1.01481   -5.89980  -14.05275

