60
frame 2 | Written by MDAnalysis XYZWriter (release 2.4.3)
       H    11.28107   14.68748  -18.09596
       O    12.14810   14.62524  -18.50024
      H1    11.98319   14.16961  -19.32849
       H     9.10936   14.19693  -18.11784
       O     9.82125   14.31918  -17.43047
      H1     9.87733   13.42875  -17.09956
       H     4.19535   11.34341  -18.90384
       O     4.29079   11.59231  -17.99827
      H1     4.96978   12.26956  -17.99304
       H     9.97707   17.11048  -15.20947
       O    10.45527   16.77842  -15.99427
      H1     9.85476   16.03041  -16.25502
       H     9.76238    9.47717  -13.75284
       O     8.82219    9.29483  -13.85995
      H1     8.53993   10.01529  -14.45610
       H     9.41170    7.90488  -17.57108
       O     8.54522    7.84858  -18.02625
      H1     8.22797    6.97814  -17.75792
       H     7.06254   12.99350  -18.18791
       O     7.64685   12.27826  -17.95757
      H1     7.42965   11.65645  -18.64443
       H    12.16366   11.88248  -16.70169
       O    11.20678   11.71217  -16.72313
      H1    11.01847   11.65550  -17.65830
       H     7.85514   11.77856  -16.19902
       O     8.03295   11.74366  -15.23489
      H1     8.94658   12.07652  -15.21614
       H    11.48287    9.31956  -14.25624
       O    11.55657   10.26665  -14.13283
      H1    11.29152   10.68010  -14.97629
       H    10.44348   14.37825  -14.54151
       O    10.07541   13.53279  -14.28952
      H1    10.48966   13.38596  -13.41580
       H     2.87108   12.76816  -17.80285
       O     2.08275   13.25103  -17.55342
      H1     2.18934   14.04120  -18.08508
       H     5.39811   11.11530  -13.61303
       O     6.15023   11.52189  -13.16394
      H1     6.81582   11.62805  -13.83221
       H     6.05041   17.12357  -17.75873
       O     5.78085   16.41673  -17.17934
      H1     6.57611   16.09530  -16.72716
       H     5.08836   10.33216  -16.73675
       O     5.85919    9.80079  -16.53148
      H1     5.51801    9.18933  -15.88340
       H     6.73624   13.34088  -12.90567
       O     7.45134   13.93255  -13.22546
      H1     8.13863   13.29618  -13.48087
       H     7.50235   16.86064  -15.13448
       O     7.71204   15.95621  -15.40300
      H1     7.47290   15.44744  -14.59595
       H     4.74022    6.95880  -17.37720
       O     5.45435    7.36738  -17.91708
      H1     5.73789    8.17727  -17.42262
       H    11.52302    8.72285  -17.84561
       O    11.11744    8.76435  -16.96871
      H1    10.94420    9.69439  -16.82323
       H     4.62832   12.28169  -14.95279
       O     4.91092   13.04107  -15.53263
      H1     5.86648   13.06076  -15.46172

