60
frame 2 | Written by MDAnalysis XYZWriter (release 2.4.3)
       H    14.22131    3.56635   13.10577
       O    13.77694    4.41236   13.19972
      H1    13.04975    4.26017   13.83590
       H     8.57381    3.61348   12.11577
       O     9.34914    3.07219   11.84608
      H1     8.91932    2.52184   11.15993
       H     9.21417    0.48616   13.84323
       O    10.11417    0.71466   14.01579
      H1    10.08573    1.66553   13.90156
       H    13.15653   -0.74201   16.50305
       O    12.99800   -0.60200   15.56396
      H1    12.11634   -0.98550   15.42864
       H     6.40203    3.09263   15.63025
       O     6.36298    2.38493   16.28049
      H1     5.88606    2.79193   16.98700
       H     7.55957    0.50816   11.20723
       O     7.82426    1.13055   10.51736
      H1     6.97934    1.49150   10.21772
       H    10.67006    0.30906   12.21364
       O    10.67213   -0.01776   11.32435
      H1    11.62133   -0.11720   11.15200
       H    10.69520    1.23453   10.10765
       O    11.18568    1.54951    9.33782
      H1    10.84110    0.96590    8.61397
       H     8.23431   -1.09079   17.52349
       O     9.13265   -0.80157   17.65988
      H1     9.54881   -1.29508   16.96173
       H     5.33870    0.30292   14.07737
       O     5.79823    1.15352   14.01120
      H1     5.83680    1.44816   14.94048
       H     6.74968    4.60883   13.68272
       O     6.56626    4.66459   14.62469
      H1     7.21627    5.28174   14.92107
       H    11.87001    2.40963   15.04055
       O    12.77179    2.04768   15.03875
      H1    12.65925    1.10718   15.17684
       H    10.19306   -0.80120   14.69248
       O    10.37429   -1.60930   15.20962
      H1    10.43260   -2.27147   14.48303
       H     7.65387   -1.13001   13.53508
       O     7.78578   -0.19992   13.23715
      H1     7.06969    0.29099   13.64330
       H    10.55830    4.68304   13.53810
       O    10.95722    4.03556   14.13428
      H1    10.62035    4.30536   15.01777
       H    11.19228    4.11163   17.08634
       O    10.28301    4.21826   16.82119
      H1     9.88292    3.35632   17.08617
       H    12.33085    4.17220   11.02787
       O    11.49201    4.65116   11.22446
      H1    10.88901    3.91848   11.47692
       H     8.00307    1.97700   17.10404
       O     8.89237    1.81933   17.42149
      H1     9.03196    0.91175   17.22695
       H    13.20656    0.82818   13.35940
       O    13.44410    0.18388   12.68045
      H1    13.57281   -0.63513   13.17752
       H     9.71773   -1.34831   10.82505
       O     9.34648   -2.06495   10.31815
      H1     8.88860   -2.53643   11.02199

