60
frame 2 | Written by MDAnalysis XYZWriter (release 2.4.3)
       H     2.10962  -10.19724    4.15236
       O     2.08207   -9.74464    3.28106
      H1     2.56164  -10.33940    2.69546
       H     2.95557  -12.84379    1.96269
       O     3.12274  -11.99246    1.56335
      H1     4.04609  -11.83819    1.76099
       H     0.39865   -8.35571   -3.39951
       O     0.34681   -7.73819   -2.65319
      H1     1.15299   -7.25759   -2.77644
       H     1.05842  -10.75065    0.61545
       O     0.31226  -11.31312    0.45792
      H1    -0.29898  -10.66649    0.12976
       H     6.52586   -6.96743   -2.24188
       O     5.60384   -7.09574   -2.11499
      H1     5.57541   -7.42397   -1.21903
       H     0.63276  -13.60173   -1.03481
       O    -0.22749  -13.92702   -0.72565
      H1    -0.65495  -13.09217   -0.50533
       H     1.94621   -7.79690    3.34032
       O     1.34595   -7.20743    3.81190
      H1     0.50362   -7.56756    3.47771
       H     2.05439   -5.36445   -2.98779
       O     2.48108   -6.17763   -2.70527
      H1     2.45581   -6.11122   -1.73865
       H    -2.63354   -9.70430   -0.44533
       O    -1.69374   -9.49994   -0.53784
      H1    -1.65142   -8.63835   -0.08599
       H     0.65142  -10.29896   -2.38838
       O     1.59922  -10.41708   -2.17379
      H1     2.03552   -9.93584   -2.84491
       H     3.89360  -10.58268   -0.45895
       O     4.34553  -10.94345   -1.24927
      H1     4.16530  -10.26735   -1.92225
       H    -1.57694  -10.83208   -3.40460
       O    -1.36141   -9.88094   -3.38441
      H1    -1.37284   -9.67533   -2.43551
       H     4.16916   -8.26878   -2.98806
       O     4.11215   -9.01481   -3.58586
      H1     3.69625   -8.67413   -4.35704
       H     1.47820   -8.06048   -0.22879
       O     1.85398   -8.95237   -0.10448
      H1     1.59328   -9.38364   -0.92721
       H    -1.37304   -6.17842   -2.02738
       O    -1.04070   -5.37184   -1.64676
      H1    -1.69837   -4.72833   -1.91211
       H     0.69625   -5.49791   -0.82242
       O     1.28953   -6.00665   -0.24722
      H1     1.56540   -5.32905    0.35476
       H    -0.55833   -8.40390    1.90110
       O    -0.45962   -9.04165    2.64680
      H1     0.36990   -9.45341    2.41502
       H     2.37156  -12.48613   -1.70513
       O     2.21338  -13.45735   -1.81984
      H1     2.80467  -13.89577   -1.20369
       H     4.55794   -7.43529    0.31455
       O     4.46032   -8.39501    0.21090
      H1     3.50977   -8.61420    0.33627
       H    -1.47194   -6.26130    0.56270
       O    -0.89708   -7.01030    0.67634
      H1    -0.13167   -6.73693    0.16699

