60
frame 2 | Written by MDAnalysis XYZWriter (release 2.4.3)
       H    10.14792    6.66437   10.83178
       O     9.54544    6.25851   10.20007
      H1    10.01317    5.42771   10.07057
       H     8.57381    3.61348   12.11577
       O     9.34914    3.07219   11.84608
      H1     8.91932    2.52184   11.15993
       H     9.21417    0.48616   13.84323
       O    10.11417    0.71466   14.01579
      H1    10.08573    1.66553   13.90156
       H     4.23102    3.18732   12.02516
       O     4.89087    2.49485   11.74591
      H1     4.86779    1.94150   12.51875
       H     6.40203    3.09263   15.63025
       O     6.36298    2.38493   16.28049
      H1     5.88606    2.79193   16.98700
       H     7.55957    0.50816   11.20723
       O     7.82426    1.13055   10.51736
      H1     6.97934    1.49150   10.21772
       H    10.67006    0.30906   12.21364
       O    10.67213   -0.01776   11.32435
      H1    11.62133   -0.11720   11.15200
       H    10.69520    1.23453   10.10765
       O    11.18568    1.54951    9.33782
      H1    10.84110    0.96590    8.61397
       H     6.60477    4.97535   11.44485
       O     6.74112    4.18677   11.98100
      H1     6.11505    3.52933   11.68828
       H     9.50107    8.29048   12.92137
       O     9.86968    7.39517   13.02810
      H1     9.13841    6.81069   12.77583
       H     5.33870    0.30292   14.07737
       O     5.79823    1.15352   14.01120
      H1     5.83680    1.44816   14.94048
       H     6.74968    4.60883   13.68272
       O     6.56626    4.66459   14.62469
      H1     7.21627    5.28174   14.92107
       H     5.23976    1.89206    9.95935
       O     5.38625    1.57776    9.05194
      H1     4.80566    2.15365    8.52918
       H     6.12483    6.65473   11.56826
       O     6.97258    6.99101   11.89559
      H1     7.37189    7.31204   11.09050
       H     8.07909    0.72225    7.32951
       O     8.75659    1.36721    7.59843
      H1     8.53251    1.56046    8.51493
       H     7.65387   -1.13001   13.53508
       O     7.78578   -0.19992   13.23715
      H1     7.06969    0.29099   13.64330
       H     7.84534    5.73438    9.29532
       O     7.07575    5.17438    9.10922
      H1     7.41224    4.46121    8.54071
       H    10.55830    4.68304   13.53810
       O    10.95722    4.03556   14.13428
      H1    10.62035    4.30536   15.01777
       H    12.33085    4.17220   11.02787
       O    11.49201    4.65116   11.22446
      H1    10.88901    3.91848   11.47692
       H    11.04158    4.66376    8.54705
       O    10.20487    4.16237    8.43191
      H1    10.49691    3.24949    8.62312

