60
frame 0 | Written by MDAnalysis XYZWriter (release 2.4.3)
       H     0.54494  -17.82400   -8.42088
       O    -0.11928  -18.35262   -8.89869
      H1    -0.89306  -18.30763   -8.32751
       H     3.26606  -13.90008  -16.05622
       O     3.72325  -14.39377  -16.73057
      H1     3.46645  -15.28080  -16.54333
       H    -0.45888  -18.86023  -10.76092
       O    -1.24493  -18.97644  -11.29618
      H1    -1.81524  -19.36618  -10.64467
       H     1.20140  -15.33646  -13.85646
       O     1.31153  -16.05943  -13.21281
      H1     0.41235  -16.29053  -12.93544
       H     0.89457  -12.07004  -12.67122
       O     0.04684  -12.42859  -12.94836
      H1    -0.38576  -12.66094  -12.10660
       H    -1.24430  -16.78237  -11.73659
       O    -1.08628  -16.52368  -12.65244
      H1    -1.14873  -17.29225  -13.20787
       H     1.03277  -16.30305  -17.15728
       O     1.24685  -15.73124  -17.87246
      H1     0.99904  -16.23101  -18.69749
       H     1.40243  -18.09564  -14.10123
       O     1.87713  -18.92157  -14.27028
      H1     2.66911  -18.80506  -13.73855
       H     2.87406  -12.99162  -12.16174
       O     2.92022  -12.03825  -12.32286
      H1     3.45036  -11.72483  -11.58978
       H     5.38893  -15.90615  -13.95216
       O     5.18634  -16.34418  -13.11590
      H1     5.76622  -15.99469  -12.41051
       H    -1.93545  -15.17049  -13.92209
       O    -2.28975  -14.81989  -14.77190
      H1    -2.50191  -15.64086  -15.22464
       H    -1.46823  -12.72909  -16.99522
       O    -2.14540  -12.60081  -16.30122
      H1    -2.24348  -13.44262  -15.82394
       H     2.40498  -15.33631  -12.06207
       O     3.01217  -14.91979  -11.43437
      H1     3.82955  -15.36702  -11.65779
       H    -1.15572  -13.09224  -10.13344
       O    -1.63392  -13.08174  -10.97428
      H1    -2.46861  -13.51734  -10.76851
       H     1.26245  -14.27943   -8.79171
       O     2.05648  -14.85374   -8.76101
      H1     2.25842  -14.88737   -9.74072
       H     3.00625  -17.69670  -15.27590
       O     3.17400  -16.73726  -15.26932
      H1     3.69331  -16.60831  -14.48119
       H    -2.55615  -18.42586  -12.36491
       O    -3.32923  -18.33556  -12.94830
      H1    -3.02483  -18.78232  -13.73866
       H     1.00126  -13.30874  -14.45915
       O     1.46624  -13.34423  -15.27183
      H1     0.80979  -13.56593  -15.93215
       H    -1.63108  -17.66925  -15.54260
       O    -0.94191  -17.98900  -14.94500
      H1    -0.59544  -18.79850  -15.33117
       H    -1.73428  -15.46210   -8.37047
       O    -1.98883  -15.77423   -9.23171
      H1    -1.44613  -16.55023   -9.28319

