60
frame 2 | Written by MDAnalysis XYZWriter (release 2.4.3)
       H   -16.62995  -17.63508    0.99607
       O   -16.75219  -17.19347    1.85548
      H1   -17.70263  -16.92737    1.81654
       H   -17.09958  -12.50828   -4.52622
       O   -16.47319  -11.76075   -4.56513
      H1   -16.76481  -11.24526   -5.32575
       H   -16.53019  -19.11884   -1.02602
       O   -16.11862  -18.33964   -0.67264
      H1   -16.56338  -17.61658   -1.12606
       H   -14.42949  -18.14048   -0.08097
       O   -13.53786  -17.74722   -0.11722
      H1   -13.26995  -17.68226    0.79508
       H   -14.53344  -11.08660   -1.28915
       O   -14.56461  -11.99419   -1.65346
      H1   -15.48806  -12.14542   -1.58230
       H   -16.24042  -13.07115   -6.82291
       O   -15.57080  -13.54509   -6.33755
      H1   -15.44498  -13.07520   -5.49185
       H   -13.51195  -14.38782    0.43329
       O   -12.54420  -14.30560    0.49779
      H1   -12.32625  -14.84490   -0.29948
       H   -18.52203  -15.92952   -5.79359
       O   -18.44389  -16.55845   -6.52462
      H1   -18.91312  -17.32158   -6.22470
       H   -17.07532  -19.30819   -2.91673
       O   -17.31902  -18.68243   -3.64474
      H1   -16.44978  -18.43645   -4.05428
       H   -17.02019  -12.60532   -2.34604
       O   -17.29882  -11.94740   -1.71613
      H1   -18.15911  -12.30166   -1.40566
       H   -17.39399  -14.92072    2.81144
       O   -18.35106  -14.84160    2.99340
      H1   -18.50676  -15.39753    3.80240
       H   -15.60014  -15.42608   -6.01108
       O   -15.74793  -16.36243   -6.29439
      H1   -16.70665  -16.40569   -6.31888
       H   -17.87796  -15.03935   -1.20246
       O   -17.01657  -15.49165   -1.40742
      H1   -16.37881  -14.87324   -1.03020
       H   -14.17231  -15.01157   -2.90939
       O   -13.91582  -14.14143   -3.18379
      H1   -14.22570  -13.62560   -2.40732
       H   -16.18893  -11.35273    0.80453
       O   -16.48707  -12.08629    1.38536
      H1   -16.51769  -11.68856    2.27573
       H   -13.50202  -17.04599   -1.58463
       O   -13.50127  -16.81860   -2.53601
      H1   -13.85901  -17.63728   -2.89159
       H   -15.81485  -17.04009    3.21672
       O   -15.40800  -17.21701    4.08090
      H1   -15.01456  -18.08376    3.94181
       H   -17.19199  -14.58694   -3.18849
       O   -17.52302  -14.26082   -4.01772
      H1   -18.48336  -14.31813   -3.92758
       H   -14.34717  -19.17193   -4.74026
       O   -14.64711  -18.36041   -4.30184
      H1   -14.61510  -17.68515   -4.96812
       H   -15.77713  -13.49246    0.62218
       O   -15.31837  -14.27929    0.33006
      H1   -15.56534  -14.95079    0.96786

