60
frame 2 | Written by MDAnalysis XYZWriter (release 2.4.3)
       H     4.18670   -5.25476    3.79234
       O     4.04137   -6.07788    3.29489
      H1     4.54754   -5.88592    2.48283
       H     2.10962  -10.19724    4.15236
       O     2.08207   -9.74464    3.28106
      H1     2.56164  -10.33940    2.69546
       H     2.95557  -12.84379    1.96269
       O     3.12274  -11.99246    1.56335
      H1     4.04609  -11.83819    1.76099
       H    -0.00787   -4.50607    2.89135
       O    -0.29675   -5.15616    3.56948
      H1     0.36531   -5.82164    3.50524
       H     1.05842  -10.75065    0.61545
       O     0.31226  -11.31312    0.45792
      H1    -0.29898  -10.66649    0.12976
       H    -2.09567   -9.32113    3.32356
       O    -2.73631   -9.22418    4.05267
      H1    -2.78753   -8.29289    4.09340
       H     1.94621   -7.79690    3.34032
       O     1.34595   -7.20743    3.81190
      H1     0.50362   -7.56756    3.47771
       H     0.44122   -8.90466    6.08888
       O     0.77572   -7.99265    6.26628
      H1     1.13781   -7.69828    5.41975
       H    -0.61809  -11.40006    3.85199
       O    -1.00341  -12.26358    3.55524
      H1    -1.39158  -12.76105    4.29298
       H     0.90209  -13.51744    1.21734
       O     0.66865  -14.04974    1.99251
      H1     0.01972  -13.49645    2.44231
       H     3.89360  -10.58268   -0.45895
       O     4.34553  -10.94345   -1.24927
      H1     4.16530  -10.26735   -1.92225
       H     2.72892  -12.27849    5.56606
       O     2.95109  -11.34101    5.53168
      H1     3.05790  -11.19628    6.47739
       H     1.47820   -8.06048   -0.22879
       O     1.85398   -8.95237   -0.10448
      H1     1.59328   -9.38364   -0.92721
       H     5.55873   -7.39851    3.74991
       O     6.17495   -8.13325    3.77723
      H1     6.73928   -7.82756    4.51748
       H    -0.55833   -8.40390    1.90110
       O    -0.45962   -9.04165    2.64680
      H1     0.36990   -9.45341    2.41502
       H     2.53448   -8.38104    6.91413
       O     3.36268   -8.72305    7.24838
      H1     3.99820   -8.01159    7.10018
       H     4.51889  -10.68074    4.82243
       O     5.43706  -10.63796    4.56206
      H1     5.50371   -9.69222    4.42658
       H     4.55794   -7.43529    0.31455
       O     4.46032   -8.39501    0.21090
      H1     3.50977   -8.61420    0.33627
       H     5.61172  -10.65187    2.81023
       O     5.55854  -10.73755    1.85435
      H1     5.52424   -9.79871    1.58197
       H    -1.03294  -10.30215    5.51882
       O    -0.06839  -10.49989    5.54828
      H1    -0.05322  -11.20610    6.18601

