60
frame 2 | Written by MDAnalysis XYZWriter (release 2.4.3)
       H   -14.49739   -5.80749   15.02852
       O   -14.36574   -4.86480   14.95387
      H1   -14.77465   -4.60242   14.09669
       H   -14.15771   -1.41739   15.74778
       O   -13.29230   -0.98843   15.51178
      H1   -12.60351   -1.67722   15.45789
       H   -15.75845   -0.90451    9.89250
       O   -15.86469   -1.81835   10.19673
      H1   -16.80583   -1.85297   10.41117
       H   -13.87106   -3.50446   11.75733
       O   -13.08771   -3.23528   11.30039
      H1   -13.39846   -3.15156   10.36687
       H   -14.97090    2.20797   12.23348
       O   -15.66307    1.93450   12.85656
      H1   -15.54185    0.97711   12.84747
       H   -17.11571   -2.19338   17.49015
       O   -17.97181   -2.05551   17.93154
      H1   -18.07761   -1.10345   18.03144
       H   -18.23353    0.42122    9.53533
       O   -18.41232    0.15539   10.47446
      H1   -18.06085    0.92057   10.94914
       H   -15.40597   -1.01093   17.27269
       O   -15.56510   -1.74767   16.67052
      H1   -15.05352   -2.48637   16.94383
       H   -15.81467   -2.95797   12.66720
       O   -15.29371   -3.73950   12.77178
      H1   -15.36544   -4.19109   11.89425
       H   -14.88829   -5.36549    9.83525
       O   -15.60623   -5.20489   10.47934
      H1   -15.53365   -5.98906   11.05825
       H   -17.33618   -1.54953   15.60564
       O   -17.82566   -1.43745   14.77882
      H1   -17.09094   -1.12674   14.21024
       H   -18.22220    2.75311   12.77416
       O   -19.08893    2.84024   13.19171
      H1   -19.20204    2.02277   13.64409
       H   -14.07785   -4.07622   16.49086
       O   -13.88570   -3.71663   17.34298
      H1   -13.31191   -2.97362   17.16763
       H   -17.74825   -6.43672   16.09414
       O   -17.56126   -6.33073   15.14212
      H1   -18.28194   -6.86789   14.76080
       H   -14.89292   -0.95413   13.29738
       O   -15.80287   -0.93071   12.96780
      H1   -15.64863   -1.03077   12.02278
       H   -18.30363   -3.43477   12.22587
       O   -18.40281   -3.04640   11.34547
      H1   -19.36049   -2.79666   11.28265
       H   -16.46572    1.72170   14.57428
       O   -16.64432    1.05869   15.24420
      H1   -17.32311    1.45804   15.78600
       H   -18.60501   -3.20528   14.32745
       O   -18.85048   -4.00785   13.82380
      H1   -18.08491   -4.61333   13.96001
       H   -18.16611    1.10444   19.35311
       O   -18.83734    0.50593   19.00001
      H1   -18.92785    0.80272   18.08634
       H   -14.68523   -8.27771   15.33092
       O   -14.99639   -7.44866   14.94155
      H1   -15.73708   -7.21177   15.53037

