60
frame 2 | Written by MDAnalysis XYZWriter (release 2.4.3)
       H    13.15123  -16.95322   17.32123
       O    12.50505  -16.45926   17.80555
      H1    13.00091  -16.12543   18.56066
       H    13.33929  -15.77760   11.15474
       O    13.79747  -16.62363   10.98409
      H1    14.69904  -16.52901   11.32048
       H    15.80866  -12.90275    9.35674
       O    15.91294  -13.78671    9.73117
      H1    15.69424  -14.29764    8.94150
       H    15.86507  -15.94229    7.70339
       O    15.93996  -15.03850    7.40168
      H1    16.77179  -15.01999    6.90344
       H    19.48619  -17.01472   11.20936
       O    18.76859  -16.77075   10.58421
      H1    17.98234  -16.87177   11.16180
       H    19.12025  -19.06081   14.76163
       O    18.80870  -18.58313   13.99431
      H1    18.36324  -19.30139   13.49904
       H    10.91773  -16.89247   13.95622
       O    10.60229  -17.31004   13.16565
      H1    10.58775  -18.21982   13.41797
       H    19.23406  -15.61050   16.89892
       O    18.99821  -15.79267   17.83081
      H1    18.04220  -15.95319   17.77577
       H    15.97007  -18.83290    7.68521
       O    16.18055  -19.19805    6.83491
      H1    16.67526  -18.50803    6.40493
       H    17.80411  -13.02591   15.07718
       O    18.21016  -12.21854   14.70904
      H1    17.71167  -12.01002   13.90588
       H    15.00783  -16.69396   16.09012
       O    14.37594  -17.33835   15.76308
      H1    13.91053  -16.93357   14.99044
       H    16.21460  -14.91668   17.50477
       O    16.02543  -15.87526   17.41607
      H1    15.73838  -16.15279   18.28913
       H    13.20015  -13.38455   15.26729
       O    13.85625  -13.44945   14.57724
      H1    13.41982  -14.05381   13.95656
       H    16.75762  -14.08390   11.17177
       O    17.23394  -14.09455   12.01569
      H1    17.38610  -13.15604   12.14607
       H    14.62349  -17.38878    7.85657
       O    15.22084  -17.26821    8.60901
      H1    14.63424  -17.14715    9.38982
       H    16.43210  -14.28302   13.65108
       O    16.30507  -14.48080   14.60011
      H1    15.44288  -14.03536   14.76599
       H    15.98129  -17.50854   12.41738
       O    16.41295  -16.87205   11.83147
      H1    16.47430  -16.09887   12.36269
       H    18.67826  -16.64096   14.67816
       O    18.71370  -15.78527   15.09432
      H1    17.92535  -15.30672   14.79493
       H    12.67672  -12.79658    9.98093
       O    12.97333  -13.70897    9.82166
      H1    13.94131  -13.61930    9.94135
       H    11.99196  -15.47076   12.33990
       O    12.63818  -14.77861   12.46816
      H1    12.47056  -14.19723   11.70812

