60
frame 2 | Written by MDAnalysis XYZWriter (release 2.4.3)
       H     1.82835   17.68878  -17.26157
       O     1.32044   17.01949  -16.83349
      H1     0.38765   17.22040  -17.00781
       H    -6.03333   16.48787  -12.40102
       O    -5.29788   17.08002  -12.59287
      H1    -5.65856   17.58949  -13.32585
       H    -7.57930   19.26388  -14.69488
       O    -7.46401   18.39125  -14.30185
      H1    -7.75439   18.55024  -13.40373
       H    -4.51644   15.36822  -13.14882
       O    -4.37531   14.48997  -13.47798
      H1    -3.61059   14.59895  -14.10015
       H    -1.75324   13.69319  -11.70328
       O    -0.91965   13.98919  -11.37474
      H1    -0.66234   14.70106  -12.00506
       H    -7.20079   16.76154  -15.78716
       O    -7.48665   15.91241  -16.12242
      H1    -6.61907   15.52491  -16.34653
       H    -3.49414   13.57846  -15.53376
       O    -2.59236   13.90264  -15.52310
      H1    -2.08745   13.18819  -15.15452
       H    -2.39797   18.23420  -14.50939
       O    -1.67709   17.95496  -15.07768
      H1    -1.10863   17.49282  -14.46131
       H    -2.11218   14.33903  -19.31998
       O    -2.43562   14.73074  -18.50875
      H1    -2.14080   14.15799  -17.80813
       H    -6.15180   19.00579  -19.44179
       O    -6.62030   18.50546  -18.78032
      H1    -6.23295   18.77060  -17.93641
       H     2.07913   16.23207  -12.07819
       O     2.24740   16.27001  -11.12789
      H1     2.90165   16.98990  -11.01959
       H    -4.50741   17.32137  -17.92634
       O    -4.26441   16.73263  -18.63758
      H1    -3.86749   16.00062  -18.18719
       H     0.29401   16.52677  -10.49633
       O    -0.36847   16.34375   -9.81439
      H1    -0.68364   15.44805  -10.02230
       H    -3.37036   14.59507  -10.43995
       O    -3.78272   14.69846   -9.58418
      H1    -4.26219   13.84833   -9.45252
       H    -5.07900   13.98415  -17.27201
       O    -5.30345   14.26598  -16.36431
      H1    -5.95087   13.58974  -16.14397
       H    -2.99669   17.98933   -9.82794
       O    -2.11906   18.36505  -10.06864
      H1    -1.45327   17.66889  -10.04337
       H    -0.44691   17.15072  -12.63236
       O    -0.73881   16.27438  -12.87488
      H1     0.00084   15.94473  -13.41598
       H     1.42900   14.79859  -14.56486
       O     1.81907   15.59680  -14.16442
      H1     2.17005   16.02191  -14.94309
       H    -4.41782   16.55328   -9.60017
       O    -4.71700   17.42365   -9.91862
      H1    -4.78047   17.19974  -10.85416
       H    -1.53743   17.74548  -16.72276
       O    -1.31506   17.42601  -17.62065
      H1    -1.76507   16.58794  -17.72214

