60
frame 2 | Written by MDAnalysis XYZWriter (release 2.4.3)
       H     4.18670   -5.25476    3.79234
       O     4.04137   -6.07788    3.29489
      H1     4.54754   -5.88592    2.48283
       H     4.91821    1.68265    3.93458
       O     5.46846    0.92878    4.27805
      H1     5.90469    0.70409    3.44508
       H     8.50458   -0.85387    4.75103
       O     9.21595   -0.91405    4.10676
      H1     9.91394   -1.35853    4.62890
       H     8.78222   -2.92259    7.29251
       O     9.26119   -3.18232    6.50250
      H1    10.09038   -2.70369    6.58439
       H     6.52026   -5.42789    1.11715
       O     5.73088   -5.96042    0.91811
      H1     5.17135   -5.39222    0.39230
       H     6.53229   -0.13840    5.53412
       O     7.14269   -0.67697    6.02827
      H1     6.90205   -1.57848    5.78509
       H    11.48132   -4.95294    3.44821
       O    11.62543   -5.26975    4.37840
      H1    11.54039   -4.48866    4.92100
       H     8.40128   -6.90373    5.75926
       O     7.80908   -7.65189    5.76113
      H1     8.23758   -8.30637    6.34684
       H     8.04471   -4.78486    2.64564
       O     7.51198   -4.36474    1.93392
      H1     8.12945   -4.30739    1.20183
       H     7.92549   -2.61446    9.23535
       O     7.53294   -3.04849    8.43757
      H1     6.64490   -2.66945    8.40401
       H     8.72739   -6.31601    3.45481
       O     8.63213   -5.58219    4.09037
      H1     9.54786   -5.34995    4.29582
       H     6.25051   -3.03587    1.92928
       O     5.52279   -2.46737    2.25692
      H1     4.96098   -2.37877    1.47581
       H     7.12340   -3.57374    4.62994
       O     6.47660   -2.93521    4.97466
      H1     6.10401   -2.68844    4.10011
       H     5.72106   -5.89208    8.37715
       O     5.98087   -5.35100    9.14947
      H1     6.65655   -4.75944    8.80536
       H     5.55873   -7.39851    3.74991
       O     6.17495   -8.13325    3.77723
      H1     6.73928   -7.82756    4.51748
       H     4.84390   -3.62089    5.57350
       O     4.21847   -4.35377    5.52597
      H1     3.81675   -4.34200    6.41023
       H     5.10128    0.00091    8.02630
       O     5.06592   -0.95634    8.03475
      H1     5.71422   -1.16575    7.31639
       H     7.83221   -0.52742    2.53103
       O     7.05216   -0.05883    2.25717
      H1     6.50478   -0.80520    1.99692
       H     4.85481   -6.21235    6.34900
       O     5.23539   -6.84496    6.96306
      H1     6.12952   -7.03101    6.61465
       H     9.61879   -4.85952    6.88722
       O     9.93956   -5.75516    6.99409
      H1    10.52541   -5.68620    7.74688

