60
frame 2 | Written by MDAnalysis XYZWriter (release 2.4.3)
       H   -15.16152   15.57773   -9.88494
       O   -15.85550   15.48400  -10.53483
      H1   -15.41995   15.18558  -11.33898
       H   -17.72001   12.92020   -5.46079
       O   -18.07593   12.08281   -5.80299
      H1   -17.81263   12.05476   -6.72650
       H   -15.39657    8.82804  -10.57033
       O   -15.66210    8.99381  -11.50607
      H1   -15.04254    9.60081  -11.93311
       H   -14.89456    5.75003  -12.95487
       O   -14.99912    6.63761  -13.27428
      H1   -15.07608    7.20065  -12.49318
       H   -16.83823   13.03009  -14.11705
       O   -16.29977   13.83541  -14.34116
      H1   -15.46636   13.74399  -13.85885
       H   -14.50476    9.11777  -15.82666
       O   -14.65985    8.17432  -15.70768
      H1   -14.40419    8.01098  -14.79863
       H   -12.17528   12.87276  -11.41916
       O   -12.76485   13.31926  -10.82500
      H1   -12.50329   12.90575   -9.96761
       H   -13.29929   14.77532  -12.57230
       O   -13.99663   15.36938  -12.81844
      H1   -13.76369   15.60798  -13.72479
       H   -17.60362   16.52315  -10.01111
       O   -17.88481   17.38393   -9.67374
      H1   -18.51900   17.17450   -8.97725
       H   -14.40372   11.89095  -15.75468
       O   -14.59044   11.01700  -16.01753
      H1   -15.40547   11.07487  -16.55741
       H   -17.28476    7.07913  -12.95454
       O   -18.25454    6.93542  -12.91795
      H1   -18.64863    7.70169  -12.49929
       H   -18.46900   14.23654  -15.84049
       O   -17.70402   14.41458  -16.41135
      H1   -16.92720   14.18139  -15.86486
       H   -17.90780   11.33904  -11.95005
       O   -16.95129   11.31482  -11.75809
      H1   -16.81884   10.36701  -11.55390
       H   -17.35504   10.26246  -17.69429
       O   -17.21045   11.07970  -17.21072
      H1   -17.48495   10.90324  -16.27515
       H   -14.44040   12.33853  -10.23717
       O   -15.12931   11.71578   -9.92174
      H1   -15.77703   11.62835  -10.63107
       H   -16.73152    7.70051   -6.71810
       O   -17.40249    8.36188   -6.91991
      H1   -17.34021    8.44753   -7.88052
       H   -14.17580   11.27419  -11.63135
       O   -13.65860   10.70315  -12.18896
      H1   -13.31584   11.21176  -12.95590
       H   -17.37835   10.69481  -13.90709
       O   -17.88392   11.13590  -14.60191
      H1   -18.73709   10.67667  -14.70697
       H   -17.08869   13.45373   -8.81625
       O   -16.85874   12.75987   -8.16233
      H1   -16.14687   12.29037   -8.63180
       H   -18.79872    8.71932   -9.06665
       O   -17.97975    8.62976   -9.54285
      H1   -17.71942    7.71786   -9.29116

