60
frame 2 | Written by MDAnalysis XYZWriter (release 2.4.3)
       H   -10.80967  -13.02320   -5.57009
       O   -11.23912  -12.17091   -5.70928
      H1   -12.14337  -12.40494   -5.97949
       H   -13.25894   -7.94737   -5.38646
       O   -13.46427   -7.00272   -5.41560
      H1   -12.63693   -6.52913   -5.47379
       H   -12.57281   -9.73313   -9.72181
       O   -12.28614  -10.62654   -9.48018
      H1   -11.93077  -10.96145  -10.29694
       H   -13.41917  -10.32641   -5.59002
       O   -13.22610   -9.58951   -4.97745
      H1   -13.23090   -9.96711   -4.09534
       H   -17.09958  -12.50828   -4.52622
       O   -16.47319  -11.76075   -4.56513
      H1   -16.76481  -11.24526   -5.32575
       H   -13.14797  -11.90456   -2.92247
       O   -12.31517  -11.57312   -3.16735
      H1   -12.13867  -11.80141   -4.08563
       H   -18.31147  -11.86883   -7.44961
       O   -18.42450  -11.72785   -6.50118
      H1   -18.65027  -10.80223   -6.36232
       H   -16.72349  -11.78905   -9.22665
       O   -15.94209  -11.81623   -8.70232
      H1   -15.30625  -12.04336   -9.34524
       H   -16.24042  -13.07115   -6.82291
       O   -15.57080  -13.54509   -6.33755
      H1   -15.44498  -13.07520   -5.49185
       H   -16.57549  -10.11590   -3.82314
       O   -16.83819   -9.24001   -3.46958
      H1   -16.82535   -8.70556   -4.28254
       H   -14.96469   -8.76657   -8.50149
       O   -15.60411   -9.22979   -7.98618
      H1   -15.58005  -10.12594   -8.35181
       H   -14.30835  -12.38170   -6.68476
       O   -13.71055  -11.61510   -6.67023
      H1   -14.02143  -11.06617   -7.41694
       H   -14.08202   -7.51393   -9.93368
       O   -13.89007   -8.33818  -10.38251
      H1   -13.10370   -8.12539  -10.88836
       H   -10.92851   -9.75151   -4.95649
       O   -10.43221   -8.95048   -4.86343
      H1   -10.15228   -8.76032   -5.77342
       H   -10.24125  -11.37407   -7.02697
       O    -9.97042  -11.36353   -7.96616
      H1   -10.68238  -11.79965   -8.36945
       H   -13.59440  -14.62339   -9.54644
       O   -13.58153  -15.46187   -9.08824
      H1   -13.30328  -16.11217   -9.75143
       H   -11.49278   -7.52828   -7.94443
       O   -12.09729   -6.82392   -8.19048
      H1   -11.88105   -6.07343   -7.60300
       H   -10.26932   -9.81079   -7.57231
       O   -10.07192   -8.86648   -7.56188
      H1    -9.10350   -8.80216   -7.44860
       H   -16.15128   -8.41312   -6.57890
       O   -16.75470   -7.87877   -6.05327
      H1   -16.55077   -6.97454   -6.35622
       H   -12.93176  -12.66199  -10.15255
       O   -13.83170  -12.99266  -10.18891
      H1   -13.91842  -13.29614  -11.09557

