60
frame 5 | Written by MDAnalysis XYZWriter (release 2.4.3)
       H    -8.05522   -8.52750  -17.58099
       O    -8.06001   -9.43881  -17.94627
      H1    -7.45352   -9.50855  -18.74225
       H   -12.07755  -13.44814  -16.52413
       O   -12.42072  -12.57414  -16.71819
      H1   -12.72337  -12.18822  -15.92800
       H   -11.01850  -11.88540  -18.81600
       O   -11.61185  -11.87290  -19.55884
      H1   -11.11652  -11.31026  -20.14380
       H    -9.55593   -4.08680  -16.72569
       O    -9.72310   -4.96657  -17.16383
      H1    -9.94873   -4.59138  -18.04594
       H    -7.02955   -5.56694  -20.33515
       O    -7.51036   -5.36453  -19.53151
      H1    -6.98845   -5.82325  -18.84690
       H    -7.04755   -9.78368  -14.82329
       O    -6.37563   -9.97852  -15.51814
      H1    -6.70708   -9.53448  -16.30437
       H   -11.09800   -8.55924  -19.11564
       O   -10.13645   -8.24510  -19.09272
      H1    -9.64395   -9.05782  -18.94707
       H    -9.29095  -12.77443  -14.40065
       O    -9.98836  -12.74415  -15.07936
      H1    -9.52723  -12.63110  -15.92572
       H   -15.80102  -10.31799  -17.52261
       O   -15.11529   -9.69042  -17.26830
      H1   -14.86958   -9.88867  -16.34129
       H   -11.57700   -7.38766  -15.93830
       O   -11.61397   -6.48472  -15.59486
      H1   -11.02468   -5.92684  -16.15936
       H    -7.62161   -2.97944  -17.49971
       O    -7.93533   -2.82056  -18.39976
      H1    -7.90727   -3.71838  -18.79828
       H   -13.74666   -9.79198  -18.36488
       O   -12.90500   -9.56484  -18.80807
      H1   -12.54898  -10.46589  -18.99010
       H    -7.48239   -7.31475  -16.63547
       O    -8.32468   -7.45349  -16.21659
      H1    -8.86480   -6.73794  -16.62767
       H   -14.37745   -5.47813  -16.09962
       O   -14.26635   -6.40953  -16.16932
      H1   -13.32680   -6.55343  -15.99844
       H   -12.45817   -8.59959  -13.19207
       O   -12.31959   -7.62620  -13.24881
      H1   -11.90788   -7.53142  -14.10160
       H   -13.78855   -7.76286  -19.21712
       O   -14.10234   -7.05778  -19.78804
      H1   -14.23395   -6.32453  -19.18197
       H    -5.58378   -5.81016  -16.77386
       O    -5.97556   -6.56614  -17.26712
      H1    -5.19383   -7.08838  -17.58016
       H    -6.65768   -5.22283  -14.47548
       O    -7.29812   -5.57124  -13.81657
      H1    -8.08447   -5.88520  -14.29275
       H    -8.45137  -12.94996  -18.03767
       O    -9.12762  -12.45511  -17.62249
      H1    -8.92279  -11.53765  -17.79248
       H   -12.14539   -9.59231  -16.94922
       O   -11.84867   -9.14689  -16.14603
      H1   -11.37048   -9.74067  -15.61651

