60
frame 2 | Written by MDAnalysis XYZWriter (release 2.4.3)
       H    13.86061   10.29966   -3.40971
       O    14.22820   10.81604   -2.66859
      H1    14.99274   11.25159   -3.03941
       H    19.23516   11.32712   -4.23944
       O    19.25020   11.08489   -3.32632
      H1    18.39391   11.35772   -2.96123
       H    18.12959   12.04889   -7.15920
       O    17.76602   12.02547   -8.03094
      H1    18.08029   12.88209   -8.40477
       H    15.92016   11.15125    0.38650
       O    15.34949   11.56691   -0.28681
      H1    15.07642   10.87379   -0.86986
       H    15.36467    8.77447   -4.28262
       O    16.30030    8.64158   -4.41595
      H1    16.34263    7.84385   -4.96181
       H    18.17754    8.66649   -4.05103
       O    18.97625    8.34031   -3.70015
      H1    19.46935    9.16197   -3.62918
       H    16.52193    4.46248   -7.15860
       O    16.34599    5.40841   -7.03045
      H1    15.62829    5.55370   -7.67893
       H    14.09592    5.16569   -4.48542
       O    14.27652    4.73462   -5.34905
      H1    15.10015    5.19772   -5.59974
       H    17.34858   10.60413   -9.03075
       O    17.13818    9.70733   -9.29596
      H1    17.15618    9.26792   -8.45150
       H    16.58421   12.38418   -1.78330
       O    16.71988   12.13587   -2.72274
      H1    17.07812   12.93980   -3.11802
       H    14.20814    6.59395   -9.18312
       O    14.16597    6.83826   -8.25385
      H1    13.24826    6.59241   -7.93073
       H    17.24527    7.64733   -2.20646
       O    16.72093    7.01149   -1.70046
      H1    17.35990    6.32297   -1.46711
       H    11.58911   10.91661   -6.11430
       O    11.99020   10.99062   -5.23514
      H1    12.96892   10.95939   -5.37062
       H    15.93271   12.74337   -6.47460
       O    15.93898   13.68558   -6.72970
      H1    16.48213   13.70684   -7.52716
       H    14.08513    8.97929   -8.32623
       O    14.41351    9.88307   -8.19358
      H1    15.25231    9.93607   -8.68021
       H    15.22688   10.51918   -6.49185
       O    15.51582   10.94895   -5.64885
      H1    15.85587   10.17939   -5.17186
       H    13.72431    6.43718   -2.37130
       O    14.46632    5.97442   -2.78385
      H1    15.27313    6.43290   -2.51658
       H    12.64595    9.21528   -4.76364
       O    13.37202    8.67657   -4.38726
      H1    13.01720    7.80041   -4.26341
       H    17.89324    6.80077   -6.74273
       O    17.83641    7.78509   -6.70845
      H1    18.79311    7.94469   -6.78486
       H    15.34871    7.83641   -0.03058
       O    15.41509    8.58147    0.58481
      H1    14.49616    8.82337    0.77738

