60
frame 2 | Written by MDAnalysis XYZWriter (release 2.4.3)
       H     9.56972  -16.32468    4.09134
       O     8.86518  -16.64013    3.51866
      H1     9.02070  -17.59976    3.49968
       H    12.23188   -9.58536    3.05972
       O    11.97265  -10.44292    2.74349
      H1    11.01801  -10.42935    2.67422
       H     8.43145  -10.54930   -0.53220
       O     8.96938   -9.99395   -1.09583
      H1     8.41090   -9.22370   -1.29187
       H     8.93523  -12.10385    1.93187
       O     9.34879  -12.95253    2.07401
      H1     8.86044  -13.57246    1.52741
       H    11.55649  -16.50661    1.46034
       O    11.30385  -16.19166    0.58334
      H1    10.33681  -16.11115    0.64982
       H     5.60783  -13.35404    2.52713
       O     5.61702  -13.54281    3.47889
      H1     5.45239  -12.70990    3.88957
       H     6.69507  -13.47376    0.35409
       O     6.26341  -14.08170    0.96974
      H1     5.70632  -14.70290    0.41418
       H    12.55483  -15.17075    0.71362
       O    13.37883  -14.66768    0.79844
      H1    13.18754  -14.16518    1.62750
       H     9.21038  -10.27841    3.51771
       O     9.35084  -10.13855    2.58196
      H1     8.78209   -9.37073    2.37312
       H    12.71365  -11.09766    1.42918
       O    13.18070  -11.60336    0.76589
      H1    12.51819  -12.16660    0.39691
       H     8.40017  -10.92663    5.68544
       O     9.09717  -10.37615    5.31140
      H1     9.85227  -10.99620    5.40090
       H    10.14675  -12.90614   -1.73838
       O     9.89638  -13.04806   -2.67145
      H1     9.89552  -14.02956   -2.72091
       H     7.82272  -15.29283    0.54302
       O     8.59398  -15.66186    0.96247
      H1     8.27765  -16.00916    1.81903
       H    10.49290  -12.97089    0.60335
       O    10.97875  -13.06276   -0.23738
      H1    11.34326  -13.91189   -0.19440
       H    11.36998  -14.45908    3.97779
       O    10.49030  -14.59049    4.33740
      H1     9.88413  -14.35185    3.65764
       H     5.61172  -10.65187    2.81023
       O     5.55854  -10.73755    1.85435
      H1     5.52424   -9.79871    1.58197
       H    11.11508  -12.86838    5.32294
       O    11.36905  -11.94424    5.20034
      H1    11.60656  -11.87347    4.25452
       H     7.49033  -11.91797   -0.75406
       O     7.62435  -11.91016    0.20289
      H1     6.79455  -11.47485    0.52401
       H     8.59060  -12.83960    4.01799
       O     8.03037  -13.01574    4.78450
      H1     7.14381  -13.15356    4.47087
       H    13.47044  -13.83361    4.09214
       O    13.13359  -13.55964    3.24259
      H1    13.50383  -12.67467    3.15422

