60
frame 2 | Written by MDAnalysis XYZWriter (release 2.4.3)
       H   -12.64516   -3.75206    2.53262
       O   -11.84606   -4.12703    2.94025
      H1   -11.12439   -3.74218    2.44726
       H    -8.18961    1.10982    7.69761
       O    -8.84075    0.59818    8.16459
      H1    -8.75224    0.88577    9.09663
       H   -14.84742   -1.90866    4.96559
       O   -15.49016   -2.14953    4.31066
      H1   -16.27478   -1.65878    4.58668
       H   -11.64025   -1.31027    4.30942
       O   -11.38005   -1.78729    5.08942
      H1   -10.52203   -1.46234    5.31948
       H    -8.98687   -4.69552    2.07500
       O    -9.24155   -3.80365    1.74269
      H1    -8.64920   -3.20887    2.28618
       H    -7.65243   -0.82381    2.12016
       O    -7.65469   -1.57377    2.76885
      H1    -8.23970   -1.21662    3.42707
       H   -14.38841   -1.70135    9.14760
       O   -13.49416   -1.74797    8.88396
      H1   -13.46256   -1.74303    7.90021
       H   -10.47520    1.72009    4.86408
       O   -11.41523    2.01356    4.97008
      H1   -11.65773    1.67558    5.84502
       H    -8.35845    1.88759    3.83639
       O    -8.61860    1.47065    4.66308
      H1    -8.41369    2.11290    5.36480
       H    -8.29441   -0.29007    5.86232
       O    -8.58973   -1.19939    5.79834
      H1    -8.90374   -1.41293    6.68379
       H   -13.19907    1.44010    4.51086
       O   -13.97076    1.06423    4.07243
      H1   -14.60127    0.94782    4.78206
       H    -6.87996   -1.89220    5.92635
       O    -6.10181   -2.36634    6.27673
      H1    -6.31502   -2.53077    7.19677
       H   -10.46240   -3.61588    5.71407
       O   -10.38444   -4.54399    5.48889
      H1   -11.02277   -4.65257    4.76617
       H   -12.96011   -0.10254    3.23594
       O   -12.40829   -0.75797    2.81511
      H1   -13.12830   -1.36533    2.57996
       H   -12.10885    1.57863    7.76879
       O   -11.65608    0.79621    7.45990
      H1   -10.78403    0.85009    7.83615
       H   -11.09139   -4.29939    8.49826
       O   -11.02201   -3.40006    8.87559
      H1   -11.87228   -3.04882    8.66016
       H    -7.88391   -6.23145    6.00463
       O    -7.61059   -5.33267    6.02497
      H1    -8.43602   -4.86711    5.79396
       H    -8.43462   -1.28094    8.65088
       O    -8.58549   -2.19030    8.38147
      H1    -9.47684   -2.39181    8.66991
       H   -13.92205   -0.53103    6.30525
       O   -13.75499   -1.49248    6.26418
      H1   -12.93023   -1.54074    5.79331
       H   -12.10697    0.68349    0.50131
       O   -11.31113    0.20465    0.25788
      H1   -11.05052   -0.19354    1.08814

