60
frame 2 | Written by MDAnalysis XYZWriter (release 2.4.3)
       H     3.11100  -10.72986   -6.86848
       O     2.37369  -10.26375   -7.28990
      H1     2.73139   -9.83831   -8.08344
       H     8.82613  -13.16572   -7.45131
       O     8.08260  -12.74318   -6.98032
      H1     7.43053  -12.52134   -7.66329
       H     5.56188  -13.21054   -8.34627
       O     6.09108  -12.66615   -8.97300
      H1     6.79083  -13.28244   -9.15738
       H     5.32006  -10.06999   -8.52471
       O     5.74443   -9.82813   -7.66768
      H1     5.26356   -9.04557   -7.42482
       H     7.21864  -13.92456  -12.37775
       O     8.02881  -13.69870  -11.88087
      H1     7.97002  -12.74307  -11.83865
       H     8.04618  -14.57826  -10.13921
       O     7.98126  -14.89559   -9.23555
      H1     8.86888  -15.25554   -9.04181
       H     3.82453  -10.85999  -10.23714
       O     3.29224  -11.66696  -10.08764
      H1     2.53732  -11.31652   -9.65182
       H     4.20869  -12.85253  -12.41835
       O     4.70971  -13.39744  -11.78942
      H1     4.52708  -13.03413  -10.92646
       H     7.89997   -8.27058   -7.76823
       O     8.06950   -7.67370   -7.04998
      H1     7.73452   -8.19725   -6.30967
       H     5.30386  -11.03912  -14.08994
       O     4.62980  -10.36033  -13.87922
      H1     4.15922  -10.27158  -14.70092
       H     7.59400   -8.02418  -10.14841
       O     8.15985   -8.54492   -9.55801
      H1     7.95003   -9.44866   -9.79849
       H     3.93078  -13.03245   -7.06667
       O     4.08609  -13.93930   -7.36516
      H1     3.20944  -14.23170   -7.69262
       H     5.67191  -11.26303  -10.33373
       O     5.54560  -10.35941  -10.66825
      H1     5.87894  -10.38123  -11.55438
       H     2.46094  -12.23955  -11.77492
       O     1.86157  -12.10166  -12.50715
      H1     1.01471  -12.37785  -12.11003
       H     3.68169   -8.44428  -12.92132
       O     3.52065   -7.49899  -12.96570
      H1     2.97619   -7.32490  -12.19003
       H     8.83433  -10.59721  -12.27909
       O     8.00288  -11.02447  -12.18952
      H1     7.49782  -10.72184  -12.93722
       H     5.13186  -12.47171   -5.55287
       O     4.71721  -11.75981   -6.03411
      H1     5.48722  -11.26117   -6.38004
       H     5.72031  -15.02740  -12.14205
       O     6.27750  -15.70376  -12.55049
      H1     6.93521  -15.94447  -11.92349
       H     3.14087   -7.61047   -8.41217
       O     2.59593   -8.23264   -8.98116
      H1     1.71039   -8.17658   -8.58842
       H     6.81340  -12.16186  -15.11267
       O     6.39425  -12.29696  -14.27207
      H1     5.72907  -12.95370  -14.50818

