60
frame 2 | Written by MDAnalysis XYZWriter (release 2.4.3)
       H    -0.83435   -5.35137    5.64019
       O    -0.76831   -5.84348    6.45961
      H1    -0.20047   -6.62724    6.25964
       H    -0.00787   -4.50607    2.89135
       O    -0.29675   -5.15616    3.56948
      H1     0.36531   -5.82164    3.50524
       H    -2.09567   -9.32113    3.32356
       O    -2.73631   -9.22418    4.05267
      H1    -2.78753   -8.29289    4.09340
       H     1.05198   -3.17994    8.02765
       O     0.10888   -3.46620    8.10181
      H1     0.12173   -4.25763    7.51953
       H     1.94621   -7.79690    3.34032
       O     1.34595   -7.20743    3.81190
      H1     0.50362   -7.56756    3.47771
       H    -3.16246   -9.59635    5.78477
       O    -2.87462   -9.74665    6.68689
      H1    -3.30711  -10.59330    6.88555
       H     2.57786   -4.89433    8.66450
       O     3.33945   -4.64296    8.16471
      H1     4.09007   -5.08122    8.58855
       H    -2.48308   -6.09329    7.03668
       O    -3.36174   -6.22014    7.42513
      H1    -3.14620   -6.28596    8.36425
       H     0.34105   -6.24313    8.90171
       O     1.28990   -6.20171    9.00445
      H1     1.61589   -7.07445    8.74112
       H    -1.93086   -6.01709    3.94935
       O    -2.77666   -6.46430    3.95752
      H1    -3.34035   -5.81010    4.42705
       H     0.44122   -8.90466    6.08888
       O     0.77572   -7.99265    6.26628
      H1     1.13781   -7.69828    5.41975
       H    -5.95304   -7.80879    6.64807
       O    -5.41270   -8.06408    7.43650
      H1    -4.71811   -7.37744    7.40441
       H    -4.11268   -4.73158    6.24491
       O    -4.50132   -4.40452    5.43027
      H1    -5.26780   -3.86824    5.73829
       H    -0.00572   -1.68000    5.06701
       O     0.72632   -1.35530    4.49439
      H1     1.48367   -1.31969    5.06925
       H     2.53448   -8.38104    6.91413
       O     3.36268   -8.72305    7.24838
      H1     3.99820   -8.01159    7.10018
       H    -1.23308   -0.92015    6.53972
       O    -1.24393   -1.77982    6.07614
      H1    -0.94127   -2.34636    6.80335
       H    -3.35949   -8.20277   10.10186
       O    -3.28136   -7.21760   10.14178
      H1    -2.34123   -7.01734   10.26424
       H    -1.92251   -5.14223   10.32690
       O    -1.31410   -5.43744    9.65070
      H1    -1.17163   -4.67355    9.06967
       H    -1.59031   -9.45076    8.14161
       O    -1.15944   -9.74482    8.97206
      H1    -0.22142   -9.67678    8.73668
       H    -3.56261   -3.07859    4.59665
       O    -2.99620   -2.42632    4.11756
      H1    -2.37059   -2.12118    4.76169

