60
frame 2 | Written by MDAnalysis XYZWriter (release 2.4.3)
       H     4.18670   -5.25476    3.79234
       O     4.04137   -6.07788    3.29489
      H1     4.54754   -5.88592    2.48283
       H     2.82685   -2.17868    0.16286
       O     3.03501   -2.33052    1.09081
      H1     2.76859   -1.47419    1.48450
       H     2.26957    0.71579    0.68636
       O     2.31796    0.98045   -0.23727
      H1     1.43096    0.86080   -0.58752
       H     6.52026   -5.42789    1.11715
       O     5.73088   -5.96042    0.91811
      H1     5.17135   -5.39222    0.39230
       H     4.29119   -2.79149   -1.77774
       O     3.59219   -2.11116   -1.79571
      H1     4.04121   -1.37315   -1.32518
       H    -0.00787   -4.50607    2.89135
       O    -0.29675   -5.15616    3.56948
      H1     0.36531   -5.82164    3.50524
       H     2.91067   -4.05057    1.76917
       O     2.21068   -4.70861    1.80864
      H1     2.57813   -5.36177    2.41644
       H     5.54771   -5.00600   -2.00221
       O     5.29013   -4.29941   -1.39946
      H1     5.97272   -3.60903   -1.52803
       H     6.25051   -3.03587    1.92928
       O     5.52279   -2.46737    2.25692
      H1     4.96098   -2.37877    1.47581
       H     7.12340   -3.57374    4.62994
       O     6.47660   -2.93521    4.97466
      H1     6.10401   -2.68844    4.10011
       H    -0.00572   -1.68000    5.06701
       O     0.72632   -1.35530    4.49439
      H1     1.48367   -1.31969    5.06925
       H     0.30344   -2.81525    0.28662
       O     0.56435   -2.93792   -0.64453
      H1     0.54349   -2.02439   -1.00498
       H     3.06070    0.22582    3.03682
       O     2.35307   -0.12907    2.48985
      H1     1.61277   -0.25090    3.09648
       H     0.32057   -2.49951    3.08641
       O     0.07144   -2.90622    2.24399
      H1     0.83855   -3.49202    2.11712
       H     0.69625   -5.49791   -0.82242
       O     1.28953   -6.00665   -0.24722
      H1     1.56540   -5.32905    0.35476
       H    -1.21618   -2.68966    1.04807
       O    -1.90347   -2.39681    0.49652
      H1    -2.12194   -3.18149   -0.06369
       H     7.83221   -0.52742    2.53103
       O     7.05216   -0.05883    2.25717
      H1     6.50478   -0.80520    1.99692
       H     2.09177   -3.31570   -3.46557
       O     1.28549   -3.82266   -3.29966
      H1     0.92910   -3.49040   -2.47803
       H    -1.00385    0.08965   -0.35733
       O    -0.30010   -0.05723   -0.96000
      H1    -0.68022   -0.62586   -1.63001
       H     6.46118   -0.57698   -0.55412
       O     5.52860   -0.49832   -0.21382
      H1     5.34306    0.35466   -0.62376

