60
frame 2 | Written by MDAnalysis XYZWriter (release 2.4.3)
       H   -14.29426   17.33319    4.94988
       O   -14.96435   17.76063    4.36719
      H1   -15.62135   17.05037    4.25857
       H    -8.09598   16.99496    0.06953
       O    -7.94807   16.38235    0.82937
      H1    -8.59091   16.68017    1.47801
       H    -9.64657   18.33780    2.22516
       O   -10.10880   17.47276    2.27869
      H1   -11.04885   17.60207    2.24824
       H   -15.86767   15.15333    5.47724
       O   -16.14061   15.46609    4.57744
      H1   -17.08590   15.55887    4.67075
       H   -14.99344   15.68480    7.14753
       O   -15.16521   14.73003    7.13783
      H1   -15.34038   14.51766    8.06220
       H   -10.81475   17.51099    8.21789
       O   -11.53001   17.83638    7.66701
      H1   -11.49972   18.78764    7.73871
       H   -13.91833   14.26546    1.11345
       O   -13.52703   14.02302    0.26660
      H1   -12.76778   13.48149    0.51376
       H   -13.28769   14.77033    7.58168
       O   -12.43915   14.34328    7.39549
      H1   -11.96239   14.57448    8.21636
       H   -10.86102   16.38528    3.41276
       O   -11.39293   15.89882    4.10100
      H1   -12.05829   16.54089    4.40140
       H   -13.72543   17.30510    2.10035
       O   -12.79867   17.62904    1.96900
      H1   -12.55150   17.35122    1.07378
       H   -10.33953   16.97198    5.08743
       O    -9.65981   17.53979    5.46992
      H1    -9.97160   17.81928    6.36148
       H   -15.64557   13.42129    1.87464
       O   -15.38166   14.31568    2.10787
      H1   -15.92304   14.51442    2.88075
       H    -8.27194   14.90241    6.44556
       O    -7.89682   15.70217    6.04468
      H1    -8.67736   16.21650    5.77842
       H   -10.01591   13.27613    7.21234
       O   -10.00327   13.49903    6.26543
      H1   -10.76183   14.07292    6.25207
       H   -12.62188   16.98876    6.70454
       O   -13.19815   16.56856    6.01308
      H1   -13.12489   15.61514    6.20234
       H   -10.94543   12.54955    4.19289
       O   -11.73493   12.85219    3.72740
      H1   -11.57931   13.79202    3.65524
       H   -15.48745   18.15707    6.63354
       O   -15.87599   17.70091    7.37455
      H1   -16.80996   17.87724    7.30833
       H   -11.12418   12.77852    1.89553
       O   -11.13811   12.94803    0.94429
      H1   -11.54316   12.16563    0.58828
       H    -7.95027   15.01854    3.68253
       O    -8.60685   14.75653    3.02182
      H1    -8.09374   14.67171    2.23374
       H   -13.46846   10.89723    4.83861
       O   -13.63361   11.75207    5.28683
      H1   -13.14986   12.38439    4.74128

