60
frame 2 | Written by MDAnalysis XYZWriter (release 2.4.3)
       H    13.25139  -14.51011   -1.14367
       O    12.72536  -14.78602   -1.91796
      H1    12.48752  -13.94004   -2.30775
       H    13.52741  -17.44749   -0.04910
       O    14.26901  -17.40920    0.60553
      H1    14.39112  -16.46985    0.69051
       H     7.33756  -14.37939   -6.30290
       O     7.19171  -15.24769   -5.96398
      H1     8.09802  -15.62865   -5.90373
       H    11.18723  -13.62984   -6.19417
       O    11.22295  -13.79462   -5.24752
      H1    12.05552  -14.27148   -5.21731
       H     6.98724  -14.24642   -2.45190
       O     6.77843  -15.16147   -2.08499
      H1     7.67398  -15.55778   -2.00597
       H    12.00344  -17.53537   -2.55046
       O    11.78959  -17.37063   -3.49295
      H1    11.28124  -18.17944   -3.69676
       H    11.55649  -16.50661    1.46034
       O    11.30385  -16.19166    0.58334
      H1    10.33681  -16.11115    0.64982
       H    14.27613  -15.57501   -2.39826
       O    15.10643  -16.01417   -2.73982
      H1    14.99920  -16.93179   -2.47934
       H     8.85316  -18.73265    0.82878
       O     8.03174  -18.50002    0.38154
      H1     8.00236  -17.52231    0.56733
       H    11.50120  -18.26989   -0.63090
       O    12.32416  -18.34961   -1.09973
      H1    12.54553  -19.32763   -0.99904
       H     6.13652  -16.39234   -3.16666
       O     5.84593  -17.21607   -3.57537
      H1     6.24617  -17.93434   -3.03287
       H    12.55483  -15.17075    0.71362
       O    13.37883  -14.66768    0.79844
      H1    13.18754  -14.16518    1.62750
       H     7.83806  -18.54705   -1.57218
       O     7.53008  -18.89076   -2.42686
      H1     8.29955  -18.68592   -2.98126
       H    14.19044  -16.03424   -4.64409
       O    13.40340  -15.92368   -5.16235
      H1    12.80696  -16.52878   -4.72749
       H    10.14675  -12.90614   -1.73838
       O     9.89638  -13.04806   -2.67145
      H1     9.89552  -14.02956   -2.72091
       H    12.27301  -17.16304   -7.43471
       O    11.39240  -17.21345   -7.10531
      H1    10.87114  -17.20894   -7.92817
       H    10.28056  -15.90558   -1.94494
       O     9.49841  -15.66003   -2.41474
      H1     9.69944  -15.94677   -3.30473
       H    15.59645  -17.40844   -6.28107
       O    16.08927  -17.58030   -5.45372
      H1    16.49881  -16.70958   -5.23687
       H    10.35942  -15.32051   -5.29969
       O     9.67124  -15.98278   -5.17541
      H1    10.01381  -16.76674   -5.64989
       H    14.35527  -16.76761   -8.26649
       O    14.22853  -17.24373   -7.40490
      H1    13.99776  -16.52584   -6.78810

