60
frame 0 | Written by MDAnalysis XYZWriter (release 2.4.3)
       H    18.35009    1.26027   -1.99308
       O    18.97423    0.62703   -2.38218
      H1    18.54077   -0.23490   -2.29140
       H    16.36602    0.06482   -4.85557
       O    15.97262    0.93409   -4.70413
      H1    15.40008    0.76515   -3.92913
       H    14.45857    1.52295    1.31366
       O    15.20502    1.34392    0.70506
      H1    15.32751    0.37693    0.71581
       H    18.61490    1.89312   -4.39918
       O    18.25227    2.49742   -5.03401
      H1    17.35018    2.22210   -5.18051
       H    17.65254    6.79369    0.51964
       O    17.69502    6.76458   -0.43849
      H1    17.92809    7.64859   -0.65008
       H    19.10116    2.61019    1.46209
       O    18.72622    3.28531    0.91747
      H1    18.12704    3.72452    1.53744
       H    14.71362   -1.16223    2.19875
       O    15.31595   -1.20414    1.42823
      H1    14.69882   -1.57384    0.80556
       H    16.41550   -1.94707   -2.40479
       O    17.07175   -1.32923   -2.09373
      H1    16.67098   -0.49826   -2.39504
       H    16.71619    2.13984   -0.56378
       O    17.41818    2.39360   -1.19344
      H1    18.04745    2.89721   -0.62072
       H    17.39897    3.79460   -3.99794
       O    16.80718    4.08642   -3.31424
      H1    16.65038    3.33662   -2.75328
       H    17.69106   -1.47169   -0.39111
       O    18.27364   -1.88770    0.23124
      H1    18.79441   -2.45280   -0.32375
       H    14.61080    4.12380    0.84497
       O    15.17248    4.43756    1.56359
      H1    14.95115    5.39397    1.60491
       H    16.57641    4.19685    3.30719
       O    17.39604    3.67890    3.29215
      H1    17.50588    3.33337    4.21171
       H    18.28008    5.07805   -2.24743
       O    19.17021    5.34750   -2.15430
      H1    19.09825    5.97769   -1.40352
       H    16.89609    2.18508    2.96021
       O    16.78684    1.22404    2.89721
      H1    16.17276    1.16105    2.19297
       H    14.77951    0.52742   -1.34061
       O    14.82515    1.06812   -2.16503
      H1    13.89772    1.15491   -2.49656
       H    14.22668    3.42996    2.66220
       O    13.78254    2.59598    2.90020
      H1    14.42272    2.15936    3.43084
       H    13.75831    4.15171   -1.28238
       O    14.15681    4.96943   -1.62819
      H1    15.06914    4.74057   -1.62955
       H    11.78152    3.35544   -0.90939
       O    12.39909    3.28524   -0.18109
      H1    11.97312    3.87372    0.47860
       H    13.11454   -1.62478   -1.05684
       O    14.04308   -1.62752   -0.83753
      H1    14.47953   -1.97337   -1.63304

