60
frame 2 | Written by MDAnalysis XYZWriter (release 2.4.3)
       H    -5.36548    3.90884   14.82120
       O    -5.84848    4.75275   14.78122
      H1    -6.74830    4.46402   14.45170
       H    -5.89036    9.95809   14.96267
       O    -5.53383   10.84602   14.86596
      H1    -5.10079   10.84261   13.99885
       H    -3.43217    8.92945   18.21747
       O    -2.67158    9.45219   17.99755
      H1    -3.00588   10.27692   17.60216
       H    -3.74510    6.27188   16.71170
       O    -4.44589    6.84064   16.37289
      H1    -4.95107    6.29236   15.73687
       H     1.49609    8.18354   13.68363
       O     1.45779    8.02117   12.72530
      H1     1.20836    8.88383   12.36380
       H    -0.62311    7.42210   14.81785
       O    -0.07948    6.74876   15.24007
      H1     0.60333    7.21523   15.74353
       H    -1.74589    8.16018   11.01328
       O    -2.59363    7.69910   10.97327
      H1    -3.26487    8.28849   11.32585
       H    -0.73979    9.96232   17.98819
       O    -0.18605   10.76024   17.99965
      H1     0.58550   10.56585   17.43053
       H    -0.54950    5.67192   12.59631
       O     0.32669    5.50960   12.20581
      H1     0.80610    6.29569   12.53533
       H    -6.24024    7.11334   13.52517
       O    -6.26115    7.08953   12.55106
      H1    -7.20771    7.13684   12.40420
       H    -0.89270   13.05641   12.64832
       O    -0.57903   12.50544   13.33953
      H1    -1.08195   11.67290   13.20756
       H    -3.07939    7.90628   15.20457
       O    -2.71782    7.78453   14.34751
      H1    -2.80777    6.80943   14.25388
       H    -2.67880    5.71523   11.49116
       O    -2.50262    5.05009   12.17631
      H1    -3.10887    4.33260   11.95177
       H    -5.23878    8.23052   12.30376
       O    -4.69578    9.00417   12.02229
      H1    -5.03129    9.09326   11.12387
       H    -2.52791    9.28329   13.63695
       O    -2.28904   10.15047   13.27408
      H1    -3.05717   10.39301   12.75016
       H    -7.01782    7.68309   15.82705
       O    -6.43626    8.36548   15.43150
      H1    -5.66430    8.30269   15.97297
       H    -1.64944    4.35926   15.36060
       O    -2.54550    4.51670   15.01012
      H1    -2.45776    4.67753   14.06485
       H    -4.79326   12.19571   17.51095
       O    -4.64734   11.22932   17.39604
      H1    -4.86811   11.10334   16.44489
       H    -0.30577    5.30199   16.46600
       O    -0.30777    4.37305   16.80182
      H1     0.24430    4.45322   17.59059
       H    -0.54095   10.52619   10.76578
       O    -0.32556    9.90166   11.46276
      H1    -1.07416   10.01303   12.05608

