60
frame 2 | Written by MDAnalysis XYZWriter (release 2.4.3)
       H    -1.49717   -0.90388    9.44145
       O    -1.11639   -0.11657    9.01559
      H1    -1.52838    0.68966    9.35044
       H    -0.83435   -5.35137    5.64019
       O    -0.76831   -5.84348    6.45961
      H1    -0.20047   -6.62724    6.25964
       H    -2.97561   -2.62955    9.52868
       O    -3.68070   -2.79045    8.87282
      H1    -3.64933   -2.03503    8.31500
       H    -0.01883    0.29971    5.36175
       O    -0.00109    0.80630    6.18905
      H1     0.95123    0.82599    6.40844
       H    -2.32757    0.48633    3.14820
       O    -2.36916    0.46748    4.09174
      H1    -3.27214    0.76569    4.36641
       H    -3.19673   -0.64619    6.48130
       O    -3.99978   -0.71553    6.99831
      H1    -4.52021   -1.39992    6.53401
       H    -0.00787   -4.50607    2.89135
       O    -0.29675   -5.15616    3.56948
      H1     0.36531   -5.82164    3.50524
       H     1.05198   -3.17994    8.02765
       O     0.10888   -3.46620    8.10181
      H1     0.12173   -4.25763    7.51953
       H    -2.48308   -6.09329    7.03668
       O    -3.36174   -6.22014    7.42513
      H1    -3.14620   -6.28596    8.36425
       H     0.34105   -6.24313    8.90171
       O     1.28990   -6.20171    9.00445
      H1     1.61589   -7.07445    8.74112
       H     2.19537   -1.00356    8.37248
       O     2.48479   -1.89719    8.57277
      H1     3.40777   -1.93632    8.29377
       H    -0.97382   -2.46087   11.22499
       O    -1.35508   -2.43037   10.34220
      H1    -0.61851   -2.69290    9.78653
       H    -4.11268   -4.73158    6.24491
       O    -4.50132   -4.40452    5.43027
      H1    -5.26780   -3.86824    5.73829
       H    -0.00572   -1.68000    5.06701
       O     0.72632   -1.35530    4.49439
      H1     1.48367   -1.31969    5.06925
       H     2.49973   -0.36960    6.90862
       O     2.77512   -0.17470    6.02626
      H1     3.20946    0.69451    6.15993
       H     0.32057   -2.49951    3.08641
       O     0.07144   -2.90622    2.24399
      H1     0.83855   -3.49202    2.11712
       H    -1.23308   -0.92015    6.53972
       O    -1.24393   -1.77982    6.07614
      H1    -0.94127   -2.34636    6.80335
       H    -1.92251   -5.14223   10.32690
       O    -1.31410   -5.43744    9.65070
      H1    -1.17163   -4.67355    9.06967
       H    -3.56261   -3.07859    4.59665
       O    -2.99620   -2.42632    4.11756
      H1    -2.37059   -2.12118    4.76169
       H     1.88622    0.60737    9.55598
       O     1.49614    0.67498    8.66787
      H1     0.58932    0.38782    8.82335

