60
frame 2 | Written by MDAnalysis XYZWriter (release 2.4.3)
       H    14.22131    3.56635   13.10577
       O    13.77694    4.41236   13.19972
      H1    13.04975    4.26017   13.83590
       H    14.39142   12.02719   17.26593
       O    14.16971   12.96279   17.01614
      H1    13.23941   12.96286   16.78572
       H    18.35299    9.91306   15.83207
       O    18.02830   10.82708   15.96669
      H1    18.36846   11.27523   15.17849
       H    18.02083    8.49184   12.04435
       O    18.96298    8.24900   12.14097
      H1    18.93313    7.54990   12.83248
       H    13.43704    8.81164   14.87983
       O    13.37121    9.76723   15.05332
      H1    13.63733   10.13956   14.20488
       H    16.05652    3.98322   14.23900
       O    16.85489    4.51392   14.18873
      H1    17.49454    3.88527   13.79498
       H    15.05551    5.36333   10.42415
       O    15.79313    5.72214   10.93246
      H1    16.18206    6.31691   10.30093
       H    13.10554    9.12364   18.62247
       O    12.29202    9.51464   18.20384
      H1    11.96895    8.85922   17.58252
       H    15.02285    8.64753   12.29198
       O    14.35251    8.68870   11.58937
      H1    13.60531    8.28780   12.03307
       H    12.99812   11.55653   12.00708
       O    13.75147   11.20483   12.48236
      H1    14.04209   10.39741   12.00568
       H    16.29966    7.86999   16.91269
       O    16.59853    7.78235   16.00843
      H1    17.52600    7.95897   16.05714
       H    11.58141    7.14364   12.68324
       O    12.55113    7.14041   12.73717
      H1    12.71242    6.24571   12.39392
       H    15.77182    6.44253   13.02558
       O    15.63439    7.26516   13.47850
      H1    15.78974    7.01783   14.38845
       H    13.16235    6.14312   14.81353
       O    12.71073    5.89172   15.60177
      H1    13.40244    5.86765   16.29090
       H    14.19536    5.09256   17.75513
       O    14.47769    6.00070   17.71258
      H1    15.40780    5.95279   17.59659
       H    14.66054    9.95328   16.46410
       O    15.33920   10.13911   17.11810
      H1    16.12981   10.34021   16.61606
       H    11.74900   10.29438   15.10390
       O    10.90756   10.79111   15.12755
      H1    11.02060   11.41040   15.86667
       H    16.67998    3.52460   16.82173
       O    17.31891    4.27106   16.91865
      H1    17.40513    4.61101   16.00625
       H    17.09825   10.63726   12.35393
       O    16.78043    9.85700   11.92897
      H1    16.80224   10.17180   11.01748
       H    11.47323    7.13328   16.12211
       O    10.90230    7.62396   16.72292
      H1    10.91288    7.07574   17.53964

