60
frame 2 | Written by MDAnalysis XYZWriter (release 2.4.3)
       H   -12.15088    6.10117   -5.12936
       O   -12.67082    6.88339   -4.89585
      H1   -12.16880    7.66819   -5.13611
       H   -19.16526    1.99428   -5.15355
       O   -18.50244    2.41625   -5.73109
      H1   -18.19331    1.69056   -6.29269
       H   -17.52903    5.75375   -3.38895
       O   -17.23679    6.26333   -4.15293
      H1   -17.64338    7.11815   -3.91238
       H   -12.90023    3.52425   -4.63736
       O   -12.18851    4.16004   -4.60763
      H1   -11.91060    4.16505   -3.66795
       H   -15.13373    2.28527   -4.56892
       O   -14.35124    2.62381   -5.00457
      H1   -13.96618    1.88428   -5.51564
       H   -14.92291   11.00095   -5.36687
       O   -15.08386   10.09619   -5.70186
      H1   -15.95167   10.17761   -6.15042
       H   -18.55630    4.17611   -6.17689
       O   -18.84044    5.08925   -6.31593
      H1   -18.43592    5.54350   -5.57484
       H   -14.46245    6.88328   -5.76588
       O   -15.36368    6.66821   -6.06084
      H1   -15.74390    6.27802   -5.26803
       H   -14.03489    3.97768   -1.87157
       O   -13.59178    3.14926   -1.68257
      H1   -12.66193    3.21440   -1.93805
       H   -17.50422    2.43276   -2.89158
       O   -17.21500    1.73105   -3.47944
      H1   -17.70348    1.88725   -4.29297
       H   -13.80376    9.73775   -7.03953
       O   -13.31614    9.40642   -7.78154
      H1   -12.47306    9.08495   -7.38420
       H   -16.30767    7.87840   -3.26778
       O   -16.32634    8.84207   -3.19675
      H1   -15.87096    9.06299   -4.00634
       H   -17.91831    5.52842   -9.47397
       O   -17.46341    5.93938   -8.73789
      H1   -17.89338    5.55066   -7.94707
       H   -13.56918    6.36541   -3.27455
       O   -13.99019    6.12233   -2.46684
      H1   -14.36020    6.96451   -2.18955
       H   -17.01464    4.05584   -8.81408
       O   -17.43928    3.17925   -8.80385
      H1   -16.98590    2.66318   -9.46619
       H   -15.41060    7.11196   -8.57364
       O   -14.72795    7.54370   -9.13992
      H1   -14.23340    8.15780   -8.55485
       H   -16.73152    7.70051   -6.71810
       O   -17.40249    8.36188   -6.91991
      H1   -17.34021    8.44753   -7.88052
       H   -17.22201    3.45790   -0.95721
       O   -16.68551    3.83901   -1.65573
      H1   -16.23383    4.56742   -1.22701
       H   -14.59550    4.93359   -7.78087
       O   -14.39205    3.97826   -7.64072
      H1   -14.79438    3.87784   -6.76647
       H   -18.79872    8.71932   -9.06665
       O   -17.97975    8.62976   -9.54285
      H1   -17.71942    7.71786   -9.29116

