60
frame 0 | Written by MDAnalysis XYZWriter (release 2.4.3)
       H    -3.52891   -1.46767  -16.38909
       O    -4.27819   -1.79462  -15.89119
      H1    -4.62712   -2.56503  -16.36080
       H     1.39898   -2.34702  -16.02329
       O     0.88290   -2.04692  -15.27375
      H1     0.94973   -2.70390  -14.55465
       H    -1.57697   -6.23325  -17.73500
       O    -0.62967   -6.40636  -17.94307
      H1    -0.57163   -7.38635  -17.96237
       H     1.62808   -1.78009  -18.19507
       O     1.06923   -1.02268  -18.34965
      H1     0.53398   -0.94011  -17.54956
       H    -5.56332    2.21340  -15.53107
       O    -5.23911    2.29959  -16.43069
      H1    -4.33907    1.95575  -16.37919
       H    -5.35062   -0.58249  -17.76323
       O    -6.25197   -0.28255  -18.05141
      H1    -6.48099    0.30577  -17.35419
       H    -2.94843   -1.17733  -13.89734
       O    -2.18915   -0.59260  -13.94328
      H1    -1.74912   -0.68622  -13.08723
       H    -2.62663    2.01743  -18.07921
       O    -2.61966    1.87286  -17.12559
      H1    -2.36500    2.71630  -16.79729
       H     0.80648   -0.28254  -14.84288
       O     1.41288    0.40967  -14.58878
      H1     0.99054    1.14719  -15.02181
       H    -7.80469   -3.00838  -17.43837
       O    -8.09368   -2.52285  -18.17764
      H1    -7.63993   -1.65722  -18.05624
       H    -3.41600   -5.47034  -14.11872
       O    -3.67750   -4.58521  -14.29576
      H1    -4.22106   -4.69196  -15.07673
       H    -0.95962   -5.39452  -14.83404
       O    -0.77330   -6.23952  -14.43927
      H1    -1.20848   -6.18823  -13.58370
       H     3.32294   -3.06239  -16.92548
       O     2.45897   -3.21914  -17.31064
      H1     2.38488   -4.18810  -17.30714
       H    -0.70064   -3.16597  -15.51324
       O    -1.33573   -3.81856  -15.82148
      H1    -2.03313   -3.80184  -15.13053
       H    -7.72538   -4.25777  -14.80686
       O    -7.66321   -4.52558  -15.72986
      H1    -6.73417   -4.48572  -15.97248
       H    -2.81239   -7.46616  -16.53892
       O    -3.18215   -6.87779  -17.19457
      H1    -3.45937   -7.46878  -17.90512
       H    -1.55648   -0.74751  -15.65494
       O    -1.32650   -0.55294  -16.57286
      H1    -1.75638    0.32003  -16.69191
       H    -1.65768   -3.36278  -17.63991
       O    -1.74487   -3.00836  -18.53600
      H1    -2.47523   -2.35524  -18.47116
       H     2.25670   -6.26956  -16.97570
       O     1.65456   -5.74392  -16.38829
      H1     0.81477   -5.84747  -16.85847
       H    -5.22353   -4.58794  -17.63920
       O    -5.17155   -4.87408  -16.72021
      H1    -4.67127   -5.70887  -16.74138

