60
frame 2 | Written by MDAnalysis XYZWriter (release 2.4.3)
       H    -3.33346    7.08410  -10.92081
       O    -2.62770    7.14979  -11.56495
      H1    -1.83674    7.11867  -11.00540
       H    -7.61272    8.05536  -10.35062
       O    -7.10757    8.70417  -10.80583
      H1    -7.78109    9.30063  -11.15100
       H    -6.59279   15.70206  -10.19874
       O    -6.56771   15.29016  -11.05926
      H1    -6.62574   14.33785  -10.83318
       H    -4.64239    8.31952   -7.31364
       O    -5.16749    8.51218   -8.09699
      H1    -4.60401    9.12567   -8.58587
       H    -3.32010   10.46422  -11.83546
       O    -3.63981    9.75500  -12.38773
      H1    -3.61822    8.97716  -11.81015
       H    -8.82482   11.02493  -12.31644
       O    -8.97794   10.23726  -11.76818
      H1    -9.26551    9.57837  -12.41963
       H    -5.82448   12.91355   -7.37697
       O    -5.12763   12.70481   -8.01619
      H1    -4.40433   12.40700   -7.45911
       H    -6.24898   13.41020  -13.35497
       O    -6.89997   12.70609  -13.27940
      H1    -7.58632   13.10797  -12.74070
       H    -7.58618   12.97022   -9.33901
       O    -7.25461   12.89249  -10.23797
      H1    -6.61306   12.18992  -10.15802
       H    -4.26079   12.09994  -11.40408
       O    -3.46810   12.53256  -11.74013
      H1    -3.91850   13.15383  -12.37331
       H    -1.99309    8.93724   -9.76363
       O    -2.51952    8.69693   -8.99329
      H1    -1.89203    8.79463   -8.28609
       H    -1.92549   11.08290   -7.84852
       O    -2.57956   11.76378   -7.57642
      H1    -2.02612   12.53773   -7.36468
       H    -0.04698   11.53942  -10.01543
       O    -0.89653   11.08218  -10.08658
      H1    -1.49697   11.82617   -9.83921
       H    -4.03192    5.64852   -9.27108
       O    -4.64490    6.27640   -9.70634
      H1    -4.90356    6.86256   -8.96673
       H    -6.51872    7.14982  -11.80197
       O    -6.46924    6.22189  -12.12684
      H1    -6.24745    5.73125  -11.35326
       H    -5.65199    9.93690  -13.13724
       O    -6.27751   10.03897  -13.87013
      H1    -6.59186   10.94174  -13.67434
       H    -3.37036   14.59507  -10.43995
       O    -3.78272   14.69846   -9.58418
      H1    -4.26219   13.84833   -9.45252
       H    -5.23853   11.18552   -9.18752
       O    -5.22629   10.64121   -9.97580
      H1    -5.99943   10.09683   -9.83809
       H    -6.76034    9.22392   -8.07496
       O    -7.60709    9.72480   -8.03870
      H1    -7.35257   10.44010   -7.50274
       H    -9.22738   11.54992  -10.20886
       O    -9.64906   11.31754   -9.35758
      H1    -9.22168   10.50443   -9.09560

