60
frame 2 | Written by MDAnalysis XYZWriter (release 2.4.3)
       H     4.18670   -5.25476    3.79234
       O     4.04137   -6.07788    3.29489
      H1     4.54754   -5.88592    2.48283
       H     2.82685   -2.17868    0.16286
       O     3.03501   -2.33052    1.09081
      H1     2.76859   -1.47419    1.48450
       H     6.52026   -5.42789    1.11715
       O     5.73088   -5.96042    0.91811
      H1     5.17135   -5.39222    0.39230
       H    -0.00787   -4.50607    2.89135
       O    -0.29675   -5.15616    3.56948
      H1     0.36531   -5.82164    3.50524
       H     2.91067   -4.05057    1.76917
       O     2.21068   -4.70861    1.80864
      H1     2.57813   -5.36177    2.41644
       H     1.94621   -7.79690    3.34032
       O     1.34595   -7.20743    3.81190
      H1     0.50362   -7.56756    3.47771
       H     2.57786   -4.89433    8.66450
       O     3.33945   -4.64296    8.16471
      H1     4.09007   -5.08122    8.58855
       H     0.44122   -8.90466    6.08888
       O     0.77572   -7.99265    6.26628
      H1     1.13781   -7.69828    5.41975
       H     8.04471   -4.78486    2.64564
       O     7.51198   -4.36474    1.93392
      H1     8.12945   -4.30739    1.20183
       H     8.72739   -6.31601    3.45481
       O     8.63213   -5.58219    4.09037
      H1     9.54786   -5.34995    4.29582
       H     6.25051   -3.03587    1.92928
       O     5.52279   -2.46737    2.25692
      H1     4.96098   -2.37877    1.47581
       H     7.12340   -3.57374    4.62994
       O     6.47660   -2.93521    4.97466
      H1     6.10401   -2.68844    4.10011
       H     5.55873   -7.39851    3.74991
       O     6.17495   -8.13325    3.77723
      H1     6.73928   -7.82756    4.51748
       H     0.32057   -2.49951    3.08641
       O     0.07144   -2.90622    2.24399
      H1     0.83855   -3.49202    2.11712
       H     4.84390   -3.62089    5.57350
       O     4.21847   -4.35377    5.52597
      H1     3.81675   -4.34200    6.41023
       H     0.69625   -5.49791   -0.82242
       O     1.28953   -6.00665   -0.24722
      H1     1.56540   -5.32905    0.35476
       H     2.53448   -8.38104    6.91413
       O     3.36268   -8.72305    7.24838
      H1     3.99820   -8.01159    7.10018
       H     7.57678   -7.74165    2.03779
       O     8.50072   -7.55772    2.23991
      H1     8.86880   -7.19334    1.44359
       H     4.55794   -7.43529    0.31455
       O     4.46032   -8.39501    0.21090
      H1     3.50977   -8.61420    0.33627
       H     4.85481   -6.21235    6.34900
       O     5.23539   -6.84496    6.96306
      H1     6.12952   -7.03101    6.61465

