60
frame 2 | Written by MDAnalysis XYZWriter (release 2.4.3)
       H   -14.29426   17.33319    4.94988
       O   -14.96435   17.76063    4.36719
      H1   -15.62135   17.05037    4.25857
       H   -15.25662   17.92362   13.38255
       O   -14.68044   17.26241   13.01503
      H1   -14.56520   16.66727   13.77069
       H   -15.86767   15.15333    5.47724
       O   -16.14061   15.46609    4.57744
      H1   -17.08590   15.55887    4.67075
       H   -14.99344   15.68480    7.14753
       O   -15.16521   14.73003    7.13783
      H1   -15.34038   14.51766    8.06220
       H   -10.81475   17.51099    8.21789
       O   -11.53001   17.83638    7.66701
      H1   -11.49972   18.78764    7.73871
       H   -13.28769   14.77033    7.58168
       O   -12.43915   14.34328    7.39549
      H1   -11.96239   14.57448    8.21636
       H   -17.59728   15.71155   12.59094
       O   -17.04723   15.97706   11.85701
      H1   -16.23460   16.18869   12.33062
       H   -18.32135   17.64280   10.99214
       O   -18.36675   18.27875   10.30409
      H1   -18.47045   19.13092   10.72602
       H   -18.44137   18.53789    8.60955
       O   -18.48417   18.42687    7.64713
      H1   -18.48307   19.33378    7.27526
       H   -13.85808   12.71248   12.88225
       O   -14.37619   13.49696   12.71597
      H1   -13.98497   13.82632   11.91070
       H   -13.26057   14.66344   10.15418
       O   -12.77999   14.03929   10.71645
      H1   -12.28796   13.48545   10.07884
       H   -14.58761   15.33804   15.74996
       O   -14.08401   15.69641   15.02787
      H1   -13.91164   14.94606   14.45035
       H   -14.21903   17.14921    9.01003
       O   -13.33239   16.94196    9.36357
      H1   -12.70123   17.47995    8.94038
       H   -12.62188   16.98876    6.70454
       O   -13.19815   16.56856    6.01308
      H1   -13.12489   15.61514    6.20234
       H   -11.00988   14.62512   11.50239
       O   -10.13437   14.67311   11.87492
      H1   -10.00367   13.83774   12.35117
       H   -15.74424   13.44402   10.34680
       O   -15.87662   14.25098    9.84703
      H1   -16.18025   14.85521   10.52870
       H   -12.91570   17.47104   13.35390
       O   -12.04624   17.90327   13.35445
      H1   -11.74137   17.78308   12.48289
       H   -15.48745   18.15707    6.63354
       O   -15.87599   17.70091    7.37455
      H1   -16.80996   17.87724    7.30833
       H   -16.54947   18.02344   10.14266
       O   -15.67938   18.25122   10.44878
      H1   -15.42454   17.53463   11.03916
       H   -17.83460   17.08600   15.33475
       O   -18.02272   17.72660   16.02718
      H1   -18.70438   17.31342   16.53282

