60
frame 2 | Written by MDAnalysis XYZWriter (release 2.4.3)
       H    13.10875   17.54737   -3.40440
       O    13.77508   17.31071   -4.03324
      H1    13.39293   17.58797   -4.87400
       H    16.40168   15.65759   -9.83523
       O    17.08146   15.46738  -10.52934
      H1    16.81916   14.61033  -10.88309
       H    13.67472   19.26081  -14.45226
       O    13.58303   18.62421  -13.77338
      H1    13.45258   17.81036  -14.30428
       H    13.21609   12.87240   -8.43465
       O    12.97027   12.18622   -9.05722
      H1    13.54815   11.46471   -8.80902
       H    17.12411   17.37318   -7.84277
       O    17.97593   17.16286   -7.44647
      H1    18.14182   17.79980   -6.76886
       H     7.68169   18.36015   -8.87779
       O     8.30518   18.63927   -8.21503
      H1     7.75390   18.93917   -7.48287
       H     9.85192   15.80086   -8.07498
       O    10.08429   16.72785   -7.92309
      H1     9.23927   17.14737   -7.74921
       H    11.53144   14.82312   -5.43448
       O    12.12601   15.55461   -5.45580
      H1    11.73025   16.15073   -6.08980
       H    13.63301   18.59144   -7.48601
       O    13.03635   17.94526   -7.08519
      H1    12.28876   18.46875   -6.78007
       H    10.72090   13.56694   -8.08629
       O    10.22003   14.14665   -8.68645
      H1     9.62959   13.51958   -9.14810
       H    11.26627   13.73754  -11.48688
       O    10.74163   12.98868  -11.80269
      H1    11.36512   12.25284  -11.88905
       H    14.25609   14.03540   -7.51009
       O    13.48850   14.50542   -7.89160
      H1    13.00593   14.75558   -7.10941
       H    16.02693   17.94913  -12.14359
       O    15.22165   18.11198  -11.61368
      H1    14.52603   18.13920  -12.27059
       H     7.91891   15.15832  -11.92736
       O     8.11094   15.96151  -11.41426
      H1     7.85790   15.72156  -10.53561
       H    14.50014   16.04560   -9.05687
       O    15.20691   16.68061   -9.09939
      H1    15.05337   17.12319   -9.95965
       H    11.01899   16.57736  -12.03059
       O    10.25575   17.05414  -12.36317
      H1     9.46956   16.61715  -11.94342
       H    10.90231   16.14206   -4.03564
       O    10.13858   16.30197   -3.50527
      H1     9.44455   15.71670   -3.83081
       H     8.56083   18.99454   -4.85574
       O     9.42378   18.96548   -4.37021
      H1     9.51912   17.99296   -4.20002
       H    11.45078   14.81250   -9.78087
       O    11.96356   15.25591  -10.47913
      H1    11.92818   16.19067  -10.23164
       H    12.42352   17.92913   -8.89547
       O    11.78165   17.94552   -9.61098
      H1    11.06483   17.41683   -9.22347

