60
frame 2 | Written by MDAnalysis XYZWriter (release 2.4.3)
       H   -11.04506    7.13994    5.12478
       O   -10.50500    7.51451    4.42173
      H1    -9.65716    7.11959    4.55536
       H   -10.55597   10.14344    5.27221
       O    -9.90447   10.84324    5.33562
      H1   -10.26933   11.40910    6.07987
       H    -7.76216    6.23881    2.84210
       O    -7.81495    6.70080    3.71908
      H1    -8.24672    7.53944    3.44525
       H    -5.10448    3.50807    3.41700
       O    -5.08693    3.89114    2.53227
      H1    -5.04383    3.12436    1.95712
       H    -5.49361    7.29253    6.87153
       O    -5.51909    7.93437    7.60375
      H1    -4.65143    8.30828    7.62444
       H   -11.13479    4.50038    5.37952
       O   -11.52129    5.30244    5.70411
      H1   -12.26393    5.45647    5.12160
       H    -5.33963    9.66729    4.46142
       O    -6.20701    9.49096    4.85306
      H1    -6.81585    9.72528    4.13809
       H    -8.48686    9.90533    6.22713
       O    -7.96405    9.54979    6.96594
      H1    -7.09398    9.50229    6.55741
       H    -8.54039    4.30149    5.93221
       O    -8.65412    3.71100    6.67076
      H1    -8.69860    4.30646    7.43374
       H    -9.12251   10.04190    3.45638
       O    -8.53677    9.31438    3.29202
      H1    -8.51997    9.34257    2.33354
       H    -9.12317    8.82913   -0.06162
       O    -9.49187    9.20207    0.76379
      H1   -10.14010    8.57759    1.08570
       H    -2.65947    8.44875    4.13965
       O    -3.34129    7.97704    4.63952
      H1    -3.91484    7.61048    3.92073
       H    -8.34982    6.12234    0.44827
       O    -7.97525    5.58745    1.12925
      H1    -8.73715    5.12393    1.50987
       H    -7.20659    3.49097    2.20787
       O    -7.96751    2.90648    2.31332
      H1    -8.20118    2.74694    1.40450
       H   -11.41072    4.38129    2.16655
       O   -10.44959    4.55698    2.29463
      H1   -10.03800    3.69397    2.18847
       H    -8.59982    7.80685    6.95524
       O    -9.09021    6.99146    7.03217
      H1    -8.54419    6.44350    7.60070
       H    -4.80733    7.45908    1.27602
       O    -4.49935    7.82976    0.42967
      H1    -3.54491    7.75309    0.50455
       H   -11.22815    7.40364    2.31757
       O   -11.62494    7.80750    1.52209
      H1   -11.63608    7.06134    0.89910
       H    -5.23972    5.78559    2.74556
       O    -5.10707    6.72791    2.89917
      H1    -5.91535    6.93244    3.38147
       H    -6.90988    6.03862    5.23516
       O    -6.47102    5.72541    6.04779
      H1    -5.66179    5.28187    5.75009

