60
frame 2 | Written by MDAnalysis XYZWriter (release 2.4.3)
       H     9.37030   -7.02410  -12.23877
       O     8.47025   -7.14381  -11.95979
      H1     8.20539   -6.38040  -11.44995
       H     9.69872   -1.22398  -18.51572
       O     9.81089   -1.69501  -17.67754
      H1    10.43811   -1.13689  -17.19234
       H    10.55894  -10.01061  -14.89036
       O     9.83387   -9.39465  -15.00019
      H1     9.96087   -9.15291  -15.92818
       H     5.98175   -7.45753  -15.96885
       O     5.30376   -6.83994  -15.71279
      H1     5.72481   -6.17165  -15.16087
       H    12.87889   -5.58848  -14.43898
       O    12.18028   -5.73337  -15.11125
      H1    11.39110   -5.39205  -14.68500
       H     7.80783   -5.49090  -15.71888
       O     8.13947   -6.02275  -14.98443
      H1     8.56832   -6.80565  -15.34999
       H    11.86603   -7.40875  -13.15901
       O    10.95088   -7.73559  -13.26517
      H1    11.03033   -8.32593  -14.03935
       H     7.64003   -3.95732  -11.36947
       O     7.15941   -3.21926  -11.82037
      H1     6.78125   -3.77652  -12.52713
       H     3.74747   -3.89547  -13.87907
       O     3.36908   -3.48178  -14.66960
      H1     3.84284   -3.88207  -15.40117
       H     8.92204   -2.03363  -13.15802
       O     8.57393   -1.19019  -13.43546
      H1     7.84985   -1.05209  -12.85894
       H     4.75414   -4.19386  -16.87727
       O     3.84201   -4.07215  -17.07253
      H1     3.90118   -3.75312  -17.97439
       H    12.14061   -4.87387  -16.70480
       O    12.59291   -4.71346  -17.56050
      H1    11.86951   -4.41905  -18.16815
       H     7.04751   -3.42679  -16.43841
       O     6.88516   -4.35731  -16.69029
      H1     7.16302   -4.45688  -17.59782
       H     9.16920   -8.20594  -18.04629
       O     9.80871   -7.84775  -17.41095
      H1    10.40108   -7.38260  -17.99942
       H     8.14587   -1.66949  -16.59078
       O     7.39291   -1.71436  -15.99912
      H1     7.77565   -1.60839  -15.12254
       H     4.99130   -7.01958  -17.52868
       O     4.97824   -7.30632  -18.45216
      H1     4.25290   -6.83435  -18.88906
       H     9.47828   -5.27570  -13.77577
       O    10.05765   -4.64480  -13.32714
      H1    10.58264   -5.17471  -12.69297
       H     6.84055   -9.10361  -16.95619
       O     6.13205   -9.40134  -16.36001
      H1     6.44516   -9.27423  -15.43506
       H     6.98122   -5.34595  -13.89052
       O     6.10915   -5.03148  -13.65768
      H1     5.94040   -5.51626  -12.83554
       H     8.54026   -8.77328  -14.27666
       O     7.57759   -8.67785  -14.14238
      H1     7.55375   -7.82290  -13.69878

