60
frame 2 | Written by MDAnalysis XYZWriter (release 2.4.3)
       H    -3.33346    7.08410  -10.92081
       O    -2.62770    7.14979  -11.56495
      H1    -1.83674    7.11867  -11.00540
       H    -3.32010   10.46422  -11.83546
       O    -3.63981    9.75500  -12.38773
      H1    -3.61822    8.97716  -11.81015
       H     1.24533    6.98936  -13.99094
       O     0.36737    6.75735  -14.38033
      H1     0.13464    7.58723  -14.78441
       H     1.49144   11.75640  -16.91619
       O     1.10042   11.15784  -16.24919
      H1     1.13542   10.31138  -16.71424
       H     2.02377    9.15037  -15.44010
       O     2.58757    8.93856  -14.70381
      H1     2.57703    7.98421  -14.61193
       H    -4.26079   12.09994  -11.40408
       O    -3.46810   12.53256  -11.74013
      H1    -3.91850   13.15383  -12.37331
       H    -1.75324   13.69319  -11.70328
       O    -0.91965   13.98919  -11.37474
      H1    -0.66234   14.70106  -12.00506
       H     0.02819    6.09221  -12.55942
       O    -0.28402    5.64863  -11.75862
      H1    -1.22999    5.52607  -11.82312
       H    -1.99309    8.93724   -9.76363
       O    -2.51952    8.69693   -8.99329
      H1    -1.89203    8.79463   -8.28609
       H    -0.04698   11.53942  -10.01543
       O    -0.89653   11.08218  -10.08658
      H1    -1.49697   11.82617   -9.83921
       H     1.87113   12.93444   -9.24314
       O     1.65790   12.08865   -9.67613
      H1     1.79117   11.46809   -8.96343
       H    -1.66759    7.66279  -15.45759
       O    -1.13265    8.08600  -16.12600
      H1    -1.64369    8.85054  -16.46713
       H    -1.67642   11.02637  -15.26363
       O    -1.66553   11.20962  -14.32786
      H1    -2.41567   10.74165  -13.90200
       H     2.79610    5.03616  -10.73220
       O     3.26500    5.84817  -10.86079
      H1     2.66838    6.41525  -11.35329
       H     2.86402   11.93816  -13.53870
       O     3.56364   11.27691  -13.46814
      H1     3.14114   10.46323  -13.79951
       H     0.39020    8.56288   -9.56900
       O     0.12843    7.64796   -9.75593
      H1     0.67063    7.43804  -10.50455
       H    -3.61202    7.53161  -14.97985
       O    -3.00769    6.90032  -14.55214
      H1    -3.11630    7.06512  -13.61763
       H    -0.22671   12.80863  -14.06266
       O     0.34491   13.32340  -14.67316
      H1     0.69658   12.63097  -15.24346
       H     0.76152    8.20562  -12.19586
       O     1.57009    7.68569  -12.04996
      H1     2.29207    8.23994  -12.28610
       H    -0.84637    9.98896  -11.72443
       O    -0.46790    9.40266  -12.42279
      H1    -0.62322    9.91705  -13.19743

