60
frame 2 | Written by MDAnalysis XYZWriter (release 2.4.3)
       H    -8.18961    1.10982    7.69761
       O    -8.84075    0.59818    8.16459
      H1    -8.75224    0.88577    9.09663
       H    -2.97561   -2.62955    9.52868
       O    -3.68070   -2.79045    8.87282
      H1    -3.64933   -2.03503    8.31500
       H    -3.19673   -0.64619    6.48130
       O    -3.99978   -0.71553    6.99831
      H1    -4.52021   -1.39992    6.53401
       H    -2.89254   -0.97870   11.97398
       O    -3.09166   -0.10164   11.59785
      H1    -4.06725   -0.02826   11.67338
       H    -6.16452   -1.09724   14.40255
       O    -6.54929   -1.08125   13.50089
      H1    -7.49745   -1.23394   13.66578
       H    -9.94026   -2.87614   10.82293
       O    -9.30260   -2.21549   11.11214
      H1    -8.59016   -2.42357   10.51875
       H    -9.49740    0.09079   13.44765
       O    -9.63265   -0.86040   13.47492
      H1    -9.38645   -1.11012   12.57383
       H    -5.88875   -4.64435   10.36221
       O    -5.65210   -4.51390   11.28120
      H1    -5.85774   -5.35276   11.69674
       H    -3.89053    2.00496   12.20777
       O    -3.85522    2.67676   11.51670
      H1    -4.69681    3.13823   11.57903
       H    -3.93864    2.24995    8.90431
       O    -4.67449    1.67394    8.65618
      H1    -4.31875    0.93761    8.12023
       H    -6.87996   -1.89220    5.92635
       O    -6.10181   -2.36634    6.27673
      H1    -6.31502   -2.53077    7.19677
       H    -5.25247   -2.28207    9.66233
       O    -5.94505   -1.94008   10.26643
      H1    -6.00888   -2.66806   10.90260
       H    -7.63312   -3.74738    8.44312
       O    -7.04755   -4.49112    8.67523
      H1    -7.17188   -4.99985    7.85316
       H    -5.86351   -0.22285   10.76527
       O    -5.86151    0.71256   11.06483
      H1    -5.28598    1.15290   10.42878
       H    -5.67110    0.85654   13.35610
       O    -5.09836    1.49035   13.83975
      H1    -4.29103    0.98731   14.05807
       H    -1.64120    3.82719    9.58988
       O    -1.98029    2.92798    9.56873
      H1    -2.60087    2.96164   10.31486
       H    -8.85511    2.70395   10.79409
       O    -8.67542    1.83157   11.13652
      H1    -7.70911    1.72305   11.09795
       H    -4.78357   -2.15085   12.79939
       O    -3.96732   -2.57581   13.02225
      H1    -3.68472   -2.07620   13.80721
       H    -8.43462   -1.28094    8.65088
       O    -8.58549   -2.19030    8.38147
      H1    -9.47684   -2.39181    8.66991
       H    -7.25236    2.63081    6.89417
       O    -6.67169    1.88479    7.09114
      H1    -6.10931    2.20879    7.80418

