60
frame 0 | Written by MDAnalysis XYZWriter (release 2.4.3)
       H    14.68307   -2.55877   -4.20127
       O    15.10455   -2.87028   -3.39121
      H1    15.03414   -3.84317   -3.46472
       H    11.08371    0.59952   -7.00145
       O    10.88632    1.48112   -6.64174
      H1    11.62866    1.69834   -6.09289
       H    12.03480    0.16165   -4.21529
       O    12.44516    0.71520   -3.56874
      H1    11.67621    1.14219   -3.16363
       H    14.42447    0.78973   -5.85331
       O    13.81221    1.31461   -6.40776
      H1    13.68469    0.65946   -7.10993
       H     8.06027   -1.31680   -4.97542
       O     8.79783   -0.74614   -5.25043
      H1     9.38706   -1.39742   -5.66888
       H     8.14412   -1.13692   -8.69799
       O     8.37039   -1.54502   -7.83409
      H1     8.32020   -0.82993   -7.19511
       H    11.01636   -2.54682   -4.41153
       O    11.32695   -1.94954   -5.12262
      H1    12.16956   -2.33938   -5.35984
       H    11.03857   -0.53160   -1.37851
       O    11.39673   -1.01461   -0.63367
      H1    11.18272   -0.40858    0.10728
       H    14.77951    0.52742   -1.34061
       O    14.82515    1.06812   -2.16503
      H1    13.89772    1.15491   -2.49656
       H    12.07015   -0.98037   -8.50277
       O    12.23544   -0.68765   -7.59142
      H1    12.20811   -1.52440   -7.13885
       H    13.77406   -3.71607   -6.36804
       O    13.84476   -2.78396   -6.07582
      H1    14.27311   -2.32524   -6.82583
       H     7.65177   -3.68545   -2.25524
       O     8.18632   -2.95375   -2.51063
      H1     8.96945   -3.35001   -2.89684
       H    10.55521   -5.65063   -7.81268
       O    10.86843   -4.79298   -7.54075
      H1    11.74647   -5.03302   -7.22916
       H     9.99591   -1.93723   -8.58866
       O    10.71275   -2.43607   -8.97539
      H1    10.73172   -3.21272   -8.42313
       H     9.77562   -5.34648   -6.30094
       O     9.24617   -5.54358   -5.50511
      H1     9.33213   -4.69458   -5.06400
       H    14.46036   -5.07785   -7.85671
       O    13.77328   -5.25016   -7.19185
      H1    13.87829   -6.17223   -6.95320
       H    11.18282   -4.64544   -3.61775
       O    10.73388   -3.84479   -3.30805
      H1    11.06750   -3.63778   -2.42853
       H    12.61599   -6.28892   -3.92347
       O    11.70357   -6.36455   -4.19233
      H1    11.72353   -6.85154   -5.04098
       H     9.09954   -1.05309   -2.30884
       O     9.85459   -0.67860   -2.79708
      H1     9.46358   -0.47945   -3.66963
       H    13.11454   -1.62478   -1.05684
       O    14.04308   -1.62752   -0.83753
      H1    14.47953   -1.97337   -1.63304

