60
frame 0 | Written by MDAnalysis XYZWriter (release 2.4.3)
       H   -12.16258  -11.58755   17.70413
       O   -11.37873  -11.47086   17.19179
      H1   -10.79517  -12.15513   17.54627
       H   -12.05470   -1.09033   15.62130
       O   -11.38484   -0.64223   16.14962
      H1   -10.76601   -1.35621   16.38055
       H    -7.03818   -5.10541   15.74014
       O    -6.85096   -5.41800   14.85723
      H1    -6.05258   -4.92185   14.62208
       H   -11.57693   -9.67114   16.41616
       O   -12.09472   -8.88359   16.25034
      H1   -11.61982   -8.20751   16.72831
       H    -4.59188   -7.38967   14.71072
       O    -5.37432   -7.80960   15.10852
      H1    -6.00805   -7.08340   15.10193
       H   -10.39117  -11.96441   15.73617
       O    -9.59953  -12.00800   15.18519
      H1    -9.14277  -11.17641   15.39582
       H    -4.34903   -7.38389   18.10338
       O    -4.46373   -8.10986   18.69979
      H1    -5.40728   -8.39321   18.56611
       H    -9.77299   -6.96676   13.70568
       O    -9.23714   -6.96811   14.49992
      H1    -8.46808   -6.47117   14.24348
       H    -7.68666  -10.52101   17.06448
       O    -7.20250  -11.05143   17.69897
      H1    -7.83594  -11.76096   17.93965
       H    -9.74742   -6.61870   17.62271
       O   -10.43449   -6.55342   16.95294
      H1   -10.00509   -6.79266   16.08878
       H    -7.24954   -1.64527   16.91218
       O    -6.69641   -1.09541   16.32625
      H1    -6.44345   -0.31933   16.85037
       H   -14.67082   -8.42024   18.06500
       O   -15.41701   -9.02219   18.02199
      H1   -15.51554   -9.36875   18.93305
       H    -4.95448   -4.24852   18.33431
       O    -5.30933   -3.52319   18.82798
      H1    -6.15082   -3.36182   18.37103
       H    -8.92963   -2.32360   15.20884
       O    -9.30779   -2.36037   16.08532
      H1    -9.86268   -3.18783   16.09010
       H   -12.40965   -4.05790   14.47718
       O   -12.39598   -4.06081   13.50344
      H1   -13.35420   -4.10059   13.28687
       H   -11.92080   -7.08080   13.18235
       O   -11.34588   -6.43457   12.74986
      H1   -11.73608   -5.58799   12.95109
       H   -12.22207   -3.90452   16.63756
       O   -11.39757   -4.14825   16.20377
      H1   -11.30841   -5.07860   16.51348
       H    -7.70672   -4.39889   17.99630
       O    -7.47388   -3.89191   17.23263
      H1    -8.24071   -3.30172   17.14124
       H    -7.88852   -9.47373   15.05983
       O    -8.58832   -9.68092   15.69549
      H1    -9.29808   -9.09138   15.40495
       H   -13.84124   -7.05890   14.41435
       O   -13.25162   -7.76852   14.11732
      H1   -12.81745   -8.05100   14.92358

