60
frame 2 | Written by MDAnalysis XYZWriter (release 2.4.3)
       H    -9.95673   -3.69816  -14.79530
       O    -9.16485   -4.25055  -15.03665
      H1    -8.62476   -4.23397  -14.21952
       H    -7.86263   -5.81267  -16.83911
       O    -8.21191   -6.69453  -16.71063
      H1    -9.15136   -6.50272  -16.79032
       H    -9.79986   -0.95817  -12.33415
       O    -9.16942   -1.61913  -12.63601
      H1    -8.75931   -1.92432  -11.81477
       H   -11.91354   -0.51672  -14.78897
       O   -12.71406   -0.04008  -15.04119
      H1   -12.35250    0.80881  -15.23753
       H    -8.99732   -5.44049  -10.00193
       O    -8.39537   -4.85844  -10.50913
      H1    -8.00251   -5.57155  -11.04427
       H    -5.96587   -0.71560  -15.37821
       O    -6.62119   -0.21032  -14.90690
      H1    -6.49546    0.70460  -15.25065
       H   -10.93942   -7.57994  -17.36636
       O   -11.25264   -6.71149  -17.15325
      H1   -11.68344   -6.39521  -17.96195
       H    -9.76983   -0.60410  -17.35079
       O    -9.33037    0.20392  -17.61707
      H1    -8.67216   -0.08820  -18.23825
       H   -11.09318   -1.84849  -18.13178
       O   -10.61521   -2.31597  -17.45041
      H1    -9.98781   -2.83270  -17.95441
       H   -13.24675   -2.32584  -13.87130
       O   -13.76976   -2.49626  -13.06851
      H1   -14.37310   -3.22823  -13.27453
       H   -11.08185   -3.41600  -11.09480
       O   -10.80234   -4.09851  -11.70982
      H1    -9.92113   -4.30262  -11.40452
       H    -7.13169   -7.45148  -15.07371
       O    -7.55145   -7.72447  -14.25007
      H1    -8.50919   -7.47221  -14.37573
       H    -7.49265   -3.57750  -18.56146
       O    -8.03220   -2.87552  -18.15755
      H1    -7.38201   -2.36120  -17.64129
       H   -10.04727   -6.06142  -14.48103
       O   -10.23227   -6.92410  -14.11079
      H1   -10.98149   -7.24080  -14.65968
       H    -9.16269   -0.60875  -14.25226
       O    -9.68613   -0.13023  -14.89329
      H1    -9.17783   -0.22002  -15.71174
       H    -6.87887   -3.31525  -13.13896
       O    -6.89347   -4.21211  -13.48035
      H1    -6.58662   -4.18582  -14.41852
       H   -13.37610   -6.44754  -16.18208
       O   -14.17766   -6.69253  -16.65196
      H1   -14.70596   -7.03678  -15.92475
       H   -12.11782   -5.41513  -11.94436
       O   -12.48316   -6.21546  -11.54813
      H1   -13.19502   -6.39118  -12.16489
       H   -10.75472   -2.03267  -15.10222
       O   -11.47109   -2.45904  -14.61207
      H1   -11.04693   -2.57568  -13.74721
       H    -5.96000   -4.89925  -17.20699
       O    -5.87413   -4.86635  -16.26241
      H1    -5.13776   -5.49074  -16.08045

