60
frame 2 | Written by MDAnalysis XYZWriter (release 2.4.3)
       H    -0.47346   -2.96147  -13.70369
       O    -0.94339   -2.13249  -13.57261
      H1    -0.41007   -1.72256  -12.87741
       H    -3.09890    1.78570   -5.63676
       O    -3.74078    1.46402   -6.34001
      H1    -4.42029    2.14260   -6.46892
       H     0.05904   -4.91145   -9.09474
       O    -0.70455   -4.33526   -9.07038
      H1    -0.77954   -4.23111   -8.11416
       H    -0.97403    1.58058   -4.39563
       O    -1.37281    0.73058   -4.68391
      H1    -0.62508    0.15087   -4.99227
       H     0.36858   -2.07403   -4.61906
       O     0.17179   -1.80039   -5.48609
      H1     1.02090   -1.60549   -5.86397
       H    -5.04605   -0.03672   -9.44483
       O    -5.19154   -0.72065  -10.12837
      H1    -4.29742   -1.02867  -10.25617
       H    -5.04906   -0.78640   -5.45619
       O    -4.24381   -1.16438   -5.15633
      H1    -3.61572   -0.49893   -5.34347
       H    -0.63308    2.82788   -8.28718
       O     0.03001    3.16262   -7.67434
      H1     0.81491    3.21583   -8.20862
       H     3.39710    1.32393  -11.82974
       O     3.05407    1.35344  -10.92033
      H1     2.45618    0.59895  -10.81144
       H    -0.13903    0.33858  -11.98962
       O     0.56644   -0.33172  -12.11362
      H1     0.95709   -0.09222  -12.98382
       H    -0.57061   -3.22878   -5.99006
       O    -1.15866   -3.92627   -6.29664
      H1    -1.56251   -4.20596   -5.48178
       H     0.68629   -0.79578   -9.48889
       O     1.63806   -0.73687   -9.44936
      H1     1.98567   -1.12445  -10.24491
       H    -4.69590   -2.70994   -8.64042
       O    -5.42425   -3.38824   -8.71269
      H1    -5.07802   -3.93625   -9.45949
       H    -2.22999   -1.54926  -10.46884
       O    -2.93108   -2.08094  -10.86792
      H1    -3.00447   -2.88348  -10.31438
       H     2.23431   -0.98468   -7.87404
       O     2.50346   -0.88694   -6.94562
      H1     2.28165    0.02751   -6.73587
       H    -2.75025    1.75332   -7.81326
       O    -2.30543    2.03933   -8.61339
      H1    -2.86782    1.83822   -9.35168
       H     0.39644   -1.89973  -11.06351
       O     0.47927   -2.84527  -11.04087
      H1     0.05901   -3.13431  -10.23444
       H    -1.65141    2.53714  -11.73814
       O    -1.64301    1.58012  -11.53812
      H1    -2.27633    1.19897  -12.17243
       H    -3.43860   -1.65926   -7.02489
       O    -2.94717   -2.19916   -7.64512
      H1    -2.50258   -2.84910   -7.09111
       H    -1.40086    0.04631   -8.72055
       O    -1.23970   -0.76358   -9.22707
      H1    -1.48916   -1.46564   -8.62090

