60
frame 2 | Written by MDAnalysis XYZWriter (release 2.4.3)
       H    -5.54815   -7.78509    3.31753
       O    -5.81891   -7.24422    4.04031
      H1    -6.77555   -7.24628    4.01654
       H    -9.01483   -9.76419    1.80525
       O    -8.94990  -10.55536    2.34476
      H1    -8.89228  -11.23304    1.66590
       H    -8.39336   -3.72528    0.20079
       O    -7.91600   -3.75601   -0.63570
      H1    -8.39636   -4.46489   -1.06650
       H    -8.98687   -4.69552    2.07500
       O    -9.24155   -3.80365    1.74269
      H1    -8.64920   -3.20887    2.28618
       H    -4.79515   -9.30229    0.23773
       O    -4.43855  -10.13283   -0.13115
      H1    -4.07296  -10.63020    0.59998
       H    -7.03461   -8.57265    1.58738
       O    -6.05317   -8.56170    1.66146
      H1    -5.80590   -9.33264    2.17857
       H    -7.38227   -7.39793   -2.23705
       O    -7.64833   -7.04223   -1.39001
      H1    -6.81842   -6.94627   -0.92119
       H   -10.55799   -9.35716   -1.56718
       O    -9.93787  -10.02310   -1.25594
      H1   -10.36722  -10.84697   -1.44880
       H   -11.74700   -9.75248    0.43622
       O   -11.59186   -8.91337    0.83443
      H1   -11.78220   -9.11525    1.77504
       H   -10.91866   -6.24815    0.19860
       O   -10.51331   -6.04110   -0.66456
      H1   -10.96451   -6.66193   -1.25877
       H    -4.12320   -7.08524   -1.67121
       O    -4.73221   -6.79430   -0.96652
      H1    -4.15741   -6.43212   -0.25555
       H    -6.03449   -4.16609   -1.30795
       O    -5.48052   -4.56943   -1.97872
      H1    -5.34915   -5.49088   -1.72129
       H    -9.48577   -6.47785    3.66022
       O    -8.82509   -6.48686    2.94887
      H1    -9.22068   -7.09742    2.31847
       H    -8.23648   -6.03743   -4.09413
       O    -8.97147   -6.59739   -3.75960
      H1    -8.80556   -6.69095   -2.80708
       H   -12.65401   -8.14980   -2.52698
       O   -11.71024   -8.23100   -2.41761
      H1   -11.30274   -8.28519   -3.30130
       H    -6.01686  -11.42948    1.95675
       O    -6.25930  -11.64253    1.04209
      H1    -5.93121  -10.86095    0.55997
       H    -8.50851   -8.11259   -0.02683
       O    -8.84326   -8.34967    0.83740
      H1    -9.78575   -8.56856    0.66551
       H    -8.39615   -8.89466   -4.15368
       O    -7.74277   -9.53403   -3.80920
      H1    -6.93609   -9.06044   -4.00874
       H    -5.77227  -11.09475   -2.24779
       O    -6.67072  -11.02757   -1.87838
      H1    -7.10970  -10.40963   -2.47508
       H    -8.05563  -12.03225    0.47507
       O    -8.80476  -12.64386    0.54332
      H1    -9.32738  -12.46907   -0.26666

