60
frame 2 | Written by MDAnalysis XYZWriter (release 2.4.3)
       H   -11.77432    3.00170  -12.43430
       O   -12.70493    3.00976  -12.17474
      H1   -12.69840    3.34208  -11.25359
       H   -12.66807    2.58516  -17.84001
       O   -13.00312    2.42063  -18.75389
      H1   -12.53370    3.12717  -19.18730
       H   -14.72327    0.70594  -11.05203
       O   -15.40524    0.95414  -10.38369
      H1   -16.00512    0.19478  -10.45047
       H   -16.50443    2.04316  -13.13536
       O   -16.87915    2.10046  -12.22646
      H1   -16.26346    1.54054  -11.72719
       H   -14.89456    5.75003  -12.95487
       O   -14.99912    6.63761  -13.27428
      H1   -15.07608    7.20065  -12.49318
       H   -15.76738    1.22750  -15.59039
       O   -15.85580    1.55500  -14.68028
      H1   -15.67090    2.48206  -14.79879
       H   -11.91354   -0.51672  -14.78897
       O   -12.71406   -0.04008  -15.04119
      H1   -12.35250    0.80881  -15.23753
       H   -14.20782   -1.97597  -16.73628
       O   -14.08771   -1.15092  -17.20790
      H1   -13.54805   -0.60840  -16.58143
       H   -15.66831   -3.88654  -17.53508
       O   -15.18422   -3.87440  -16.70777
      H1   -14.54458   -4.60653  -16.79748
       H   -13.24675   -2.32584  -13.87130
       O   -13.76976   -2.49626  -13.06851
      H1   -14.37310   -3.22823  -13.27453
       H   -13.94013   -1.01216  -12.50216
       O   -13.67423   -0.12297  -12.23552
      H1   -13.61901    0.28114  -13.11694
       H   -16.27843   -4.98869  -13.82570
       O   -15.90442   -4.08180  -13.94550
      H1   -15.67983   -3.96286  -14.87559
       H   -14.28796    3.31955  -17.72390
       O   -14.96067    3.52219  -17.07524
      H1   -15.75502    3.09029  -17.41977
       H   -16.01590   -0.80321  -16.83356
       O   -16.92035   -1.01267  -17.03771
      H1   -17.02601   -0.71178  -17.91378
       H   -18.79029    6.23410  -14.61438
       O   -18.62331    5.59321  -15.30816
      H1   -17.74994    5.20084  -15.08325
       H   -11.38634    2.38442  -15.06495
       O   -11.55311    2.53001  -16.00251
      H1   -10.74643    2.19551  -16.41932
       H   -15.73170    4.24550  -15.53303
       O   -16.31399    4.16446  -14.75296
      H1   -15.85979    4.64463  -14.06050
       H   -14.20045    3.67322  -12.22296
       O   -15.05612    4.10313  -12.28856
      H1   -15.69120    3.38974  -12.20508
       H   -17.22421    2.98991  -18.64866
       O   -17.25899    2.52308  -17.81022
      H1   -17.93783    3.00364  -17.31160
       H   -16.86934   -2.52832  -13.31051
       O   -17.32554   -2.03729  -12.64997
      H1   -18.08427   -1.70541  -13.13241

