60
frame 2 | Written by MDAnalysis XYZWriter (release 2.4.3)
       H    11.96806   -9.95974   -7.16118
       O    12.18052  -10.87498   -7.33168
      H1    12.26600  -10.91691   -8.30310
       H    11.01197  -13.55216   -8.48063
       O    10.62525  -13.09815   -7.76768
      H1    11.07716  -12.24242   -7.78865
       H    16.82915  -13.30097   -7.44651
       O    16.64946  -12.42892   -7.08760
      H1    17.48918  -12.00833   -6.85947
       H    13.85760  -10.53510   -6.35999
       O    14.76451  -10.27043   -6.00755
      H1    15.12008   -9.66020   -6.66405
       H    10.57896  -11.29421   -5.15236
       O    10.57402  -10.71596   -4.37697
      H1    10.39363  -11.30137   -3.63904
       H    13.13755  -10.88026  -10.59964
       O    13.00499  -10.06570  -10.08182
      H1    12.13335   -9.78630  -10.38638
       H    16.73410  -10.91324   -8.05255
       O    17.10001  -10.07702   -8.36490
      H1    17.49342   -9.65113   -7.58075
       H    13.62667  -12.64293   -4.00766
       O    12.97631  -12.32185   -3.37369
      H1    12.15197  -12.68252   -3.72025
       H    16.36993   -6.81496   -7.51717
       O    16.04451   -7.40543   -6.85203
      H1    15.09418   -7.22850   -6.79634
       H    15.58237  -12.76298   -4.70267
       O    14.91001  -13.35198   -5.13069
      H1    15.14661  -13.21949   -6.06122
       H    10.81481   -8.18452   -5.58191
       O    11.04970   -8.39987   -6.49261
      H1    10.22171   -8.35863   -6.94834
       H    16.09100  -12.88221   -2.32137
       O    16.61815  -12.65336   -3.10878
      H1    17.23724  -11.99358   -2.80558
       H    17.86098   -8.94923   -3.69673
       O    17.40663   -8.15423   -4.05642
      H1    16.48820   -8.41769   -4.10542
       H    14.78282   -9.57457   -9.84654
       O    15.35619   -8.85076  -10.11130
      H1    16.25464   -9.15968   -9.85673
       H    19.15061  -10.69490   -3.09905
       O    18.21687  -10.44160   -3.04908
      H1    18.08771  -10.28133   -2.10940
       H    14.33254  -10.73805   -1.90870
       O    13.88961  -10.00513   -2.37903
      H1    13.30827  -10.47267   -2.97136
       H    13.43471   -7.39847   -5.59061
       O    13.33647   -6.97408   -6.44416
      H1    12.55558   -7.40647   -6.81613
       H    17.86944   -5.68982   -6.33403
       O    18.53974   -6.30424   -5.94243
      H1    17.97727   -7.05513   -5.61374
       H    14.96289   -6.34806   -4.54949
       O    14.60732   -5.47320   -4.47659
      H1    15.07089   -4.94402   -5.12713
       H    14.19745   -8.71440   -3.56201
       O    14.62213   -8.23679   -4.26354
      H1    14.85546   -8.95258   -4.84095

