60
frame 2 | Written by MDAnalysis XYZWriter (release 2.4.3)
       H     2.10962  -10.19724    4.15236
       O     2.08207   -9.74464    3.28106
      H1     2.56164  -10.33940    2.69546
       H     2.95557  -12.84379    1.96269
       O     3.12274  -11.99246    1.56335
      H1     4.04609  -11.83819    1.76099
       H     0.39865   -8.35571   -3.39951
       O     0.34681   -7.73819   -2.65319
      H1     1.15299   -7.25759   -2.77644
       H     1.05842  -10.75065    0.61545
       O     0.31226  -11.31312    0.45792
      H1    -0.29898  -10.66649    0.12976
       H    -2.09567   -9.32113    3.32356
       O    -2.73631   -9.22418    4.05267
      H1    -2.78753   -8.29289    4.09340
       H     0.63276  -13.60173   -1.03481
       O    -0.22749  -13.92702   -0.72565
      H1    -0.65495  -13.09217   -0.50533
       H    -4.79515   -9.30229    0.23773
       O    -4.43855  -10.13283   -0.13115
      H1    -4.07296  -10.63020    0.59998
       H    -3.47549  -12.51979   -1.33185
       O    -2.99022  -11.88009   -1.87285
      H1    -3.54563  -11.78234   -2.66674
       H    -1.75436  -14.11887    1.56046
       O    -2.09528  -15.02796    1.76417
      H1    -3.05013  -14.84399    1.87150
       H    -0.61809  -11.40006    3.85199
       O    -1.00341  -12.26358    3.55524
      H1    -1.39158  -12.76105    4.29298
       H    -2.63354   -9.70430   -0.44533
       O    -1.69374   -9.49994   -0.53784
      H1    -1.65142   -8.63835   -0.08599
       H     0.90209  -13.51744    1.21734
       O     0.66865  -14.04974    1.99251
      H1     0.01972  -13.49645    2.44231
       H     0.65142  -10.29896   -2.38838
       O     1.59922  -10.41708   -2.17379
      H1     2.03552   -9.93584   -2.84491
       H     3.89360  -10.58268   -0.45895
       O     4.34553  -10.94345   -1.24927
      H1     4.16530  -10.26735   -1.92225
       H    -1.57694  -10.83208   -3.40460
       O    -1.36141   -9.88094   -3.38441
      H1    -1.37284   -9.67533   -2.43551
       H     1.47820   -8.06048   -0.22879
       O     1.85398   -8.95237   -0.10448
      H1     1.59328   -9.38364   -0.92721
       H    -0.55833   -8.40390    1.90110
       O    -0.45962   -9.04165    2.64680
      H1     0.36990   -9.45341    2.41502
       H    -2.25196  -11.75790    2.23357
       O    -2.77643  -11.64598    1.44653
      H1    -2.10846  -11.63453    0.76598
       H     2.37156  -12.48613   -1.70513
       O     2.21338  -13.45735   -1.81984
      H1     2.80467  -13.89577   -1.20369
       H    -1.47194   -6.26130    0.56270
       O    -0.89708   -7.01030    0.67634
      H1    -0.13167   -6.73693    0.16699

