60
frame 2 | Written by MDAnalysis XYZWriter (release 2.4.3)
       H   -14.86048    9.41059   12.48358
       O   -14.42191   10.23341   12.35363
      H1   -14.78565   10.61555   11.52667
       H   -16.27546   11.33531   10.43183
       O   -15.36719   11.73580   10.43956
      H1   -15.06149   11.54077    9.54392
       H   -18.42499    9.65239   13.42927
       O   -17.90745    9.91095   14.17131
      H1   -17.51367   10.73661   13.83678
       H   -18.27778    7.95253    9.14742
       O   -17.60229    8.48505    9.59049
      H1   -17.98359    8.62605   10.48071
       H   -16.09720   12.35256   14.44856
       O   -16.53720   12.31366   13.60120
      H1   -15.86377   12.65185   13.03083
       H   -18.72793   12.30015    9.87575
       O   -18.38248   11.51057   10.30009
      H1   -18.52117   11.63941   11.23644
       H   -17.01003   11.73867    7.02378
       O   -16.90475   12.38942    6.33223
      H1   -15.93888   12.55208    6.38521
       H   -18.14446    5.48866   14.21692
       O   -18.70713    6.14837   13.77900
      H1   -19.63804    5.89609   14.01143
       H   -13.38081    8.93937   10.29044
       O   -13.06715    8.34498   10.98886
      H1   -13.42104    8.81651   11.80134
       H   -18.38352    9.98966    8.51336
       O   -18.82679   10.46220    7.78518
      H1   -18.84423    9.89959    7.01136
       H   -14.66911    7.50640   13.70499
       O   -15.43025    7.84015   13.19735
      H1   -16.15942    8.08056   13.75231
       H   -16.74477    2.70369   11.45016
       O   -17.53039    2.93570   10.96625
      H1   -17.63977    3.89185   11.05694
       H   -15.74424   13.44402   10.34680
       O   -15.87662   14.25098    9.84703
      H1   -16.18025   14.85521   10.52870
       H   -19.67488   13.10286   12.55935
       O   -19.21673   12.35985   13.01643
      H1   -18.32144   12.66578   13.11211
       H   -18.44370    7.25758   15.13610
       O   -18.47709    7.91860   15.86140
      H1   -18.28113    8.71811   15.41092
       H   -17.94235    5.82168   11.99785
       O   -17.48821    5.65842   11.15371
      H1   -17.83152    6.37887   10.61602
       H   -16.12543    9.02432    6.79920
       O   -15.65679    8.44465    7.48491
      H1   -16.17466    8.54237    8.28634
       H   -15.36546    6.21761   10.80242
       O   -14.45109    6.07506   10.49611
      H1   -13.98697    6.88982   10.78981
       H   -14.99708   10.01439    7.92243
       O   -14.94891   10.96350    7.90390
      H1   -14.28712   11.13036    7.22104
       H   -14.41666    6.91674    7.26164
       O   -13.76196    6.31159    7.69124
      H1   -14.03985    6.24391    8.60544

