60
frame 2 | Written by MDAnalysis XYZWriter (release 2.4.3)
       H    11.96806   -9.95974   -7.16118
       O    12.18052  -10.87498   -7.33168
      H1    12.26600  -10.91691   -8.30310
       H    16.82915  -13.30097   -7.44651
       O    16.64946  -12.42892   -7.08760
      H1    17.48918  -12.00833   -6.85947
       H    12.91624   -6.48985   -2.03555
       O    12.45981   -6.01373   -2.75869
      H1    13.21915   -5.77544   -3.29630
       H    13.85760  -10.53510   -6.35999
       O    14.76451  -10.27043   -6.00755
      H1    15.12008   -9.66020   -6.66405
       H    18.84000  -11.98153   -9.88040
       O    19.26738  -11.27490   -9.36004
      H1    18.54242  -10.69514   -9.09506
       H    16.73410  -10.91324   -8.05255
       O    17.10001  -10.07702   -8.36490
      H1    17.49342   -9.65113   -7.58075
       H    17.44789   -3.50478   -7.48155
       O    17.17611   -4.44122   -7.62423
      H1    17.43694   -4.59631   -8.55246
       H    16.36993   -6.81496   -7.51717
       O    16.04451   -7.40543   -6.85203
      H1    15.09418   -7.22850   -6.79634
       H    10.81481   -8.18452   -5.58191
       O    11.04970   -8.39987   -6.49261
      H1    10.22171   -8.35863   -6.94834
       H    15.50912   -7.15378   -9.80912
       O    15.73199   -6.21812   -9.76530
      H1    14.92791   -5.78753   -9.40676
       H    17.86098   -8.94923   -3.69673
       O    17.40663   -8.15423   -4.05642
      H1    16.48820   -8.41769   -4.10542
       H    14.29347   -2.43453   -5.72010
       O    15.15127   -2.68413   -5.36629
      H1    15.78797   -2.43048   -6.04497
       H    17.11526   -7.01050   -1.27636
       O    16.38737   -6.83898   -1.92620
      H1    16.80317   -7.17341   -2.72137
       H    14.40230   -3.76560   -9.57150
       O    14.40518   -4.14411   -8.66440
      H1    15.36814   -4.21073   -8.48241
       H    11.21371   -5.13786   -5.69861
       O    11.60098   -4.91840   -6.53233
      H1    12.43471   -5.37263   -6.50424
       H    14.78282   -9.57457   -9.84654
       O    15.35619   -8.85076  -10.11130
      H1    16.25464   -9.15968   -9.85673
       H    13.43471   -7.39847   -5.59061
       O    13.33647   -6.97408   -6.44416
      H1    12.55558   -7.40647   -6.81613
       H    17.86944   -5.68982   -6.33403
       O    18.53974   -6.30424   -5.94243
      H1    17.97727   -7.05513   -5.61374
       H    14.96289   -6.34806   -4.54949
       O    14.60732   -5.47320   -4.47659
      H1    15.07089   -4.94402   -5.12713
       H    14.19745   -8.71440   -3.56201
       O    14.62213   -8.23679   -4.26354
      H1    14.85546   -8.95258   -4.84095

