60
frame 2 | Written by MDAnalysis XYZWriter (release 2.4.3)
       H   -12.88378    0.01746    9.46393
       O   -12.63799    0.65392   10.13673
      H1   -12.78979    0.15786   10.94736
       H    -8.18961    1.10982    7.69761
       O    -8.84075    0.59818    8.16459
      H1    -8.75224    0.88577    9.09663
       H   -11.64025   -1.31027    4.30942
       O   -11.38005   -1.78729    5.08942
      H1   -10.52203   -1.46234    5.31948
       H    -9.72233    4.14071    9.79352
       O    -8.89696    4.53396    9.45404
      H1    -8.94461    5.47804    9.72394
       H   -13.79561    3.83504    7.80509
       O   -12.88021    3.64962    7.63536
      H1   -12.53977    4.46175    7.22181
       H   -14.38841   -1.70135    9.14760
       O   -13.49416   -1.74797    8.88396
      H1   -13.46256   -1.74303    7.90021
       H   -15.62603    1.69032    6.39686
       O   -15.27142    0.80975    6.46976
      H1   -16.09692    0.25940    6.43669
       H   -11.13479    4.50038    5.37952
       O   -11.52129    5.30244    5.70411
      H1   -12.26393    5.45647    5.12160
       H   -10.47520    1.72009    4.86408
       O   -11.41523    2.01356    4.97008
      H1   -11.65773    1.67558    5.84502
       H    -8.35845    1.88759    3.83639
       O    -8.61860    1.47065    4.66308
      H1    -8.41369    2.11290    5.36480
       H    -8.29441   -0.29007    5.86232
       O    -8.58973   -1.19939    5.79834
      H1    -8.90374   -1.41293    6.68379
       H   -13.19907    1.44010    4.51086
       O   -13.97076    1.06423    4.07243
      H1   -14.60127    0.94782    4.78206
       H    -8.54039    4.30149    5.93221
       O    -8.65412    3.71100    6.67076
      H1    -8.69860    4.30646    7.43374
       H   -12.96011   -0.10254    3.23594
       O   -12.40829   -0.75797    2.81511
      H1   -13.12830   -1.36533    2.57996
       H   -12.10885    1.57863    7.76879
       O   -11.65608    0.79621    7.45990
      H1   -10.78403    0.85009    7.83615
       H   -11.09139   -4.29939    8.49826
       O   -11.02201   -3.40006    8.87559
      H1   -11.87228   -3.04882    8.66016
       H   -11.67617    3.86755    9.41780
       O   -11.20070    3.33229   10.03444
      H1   -11.59525    2.47972    9.85370
       H   -15.89295    1.39852    9.28595
       O   -15.37504    0.97087   10.01084
      H1   -14.47299    1.18020    9.74517
       H    -8.43462   -1.28094    8.65088
       O    -8.58549   -2.19030    8.38147
      H1    -9.47684   -2.39181    8.66991
       H   -13.92205   -0.53103    6.30525
       O   -13.75499   -1.49248    6.26418
      H1   -12.93023   -1.54074    5.79331

