60
frame 2 | Written by MDAnalysis XYZWriter (release 2.4.3)
       H    -8.02178  -11.60362  -16.49141
       O    -7.58419  -11.17802  -17.23248
      H1    -6.69084  -11.54950  -17.28843
       H    -9.35218  -15.62299  -16.89093
       O    -9.95957  -14.87331  -16.83898
      H1   -10.80577  -15.32920  -16.70833
       H    -9.44184  -19.19848  -17.64432
       O    -9.15926  -18.70165  -18.41233
      H1    -8.26698  -19.02567  -18.54457
       H   -12.61064  -14.20114  -16.17860
       O   -12.72392  -13.41230  -15.66622
      H1   -12.27668  -13.55944  -14.85794
       H    -4.63504  -15.64147  -15.51188
       O    -3.81785  -16.08814  -15.81311
      H1    -3.17510  -15.38084  -15.89517
       H    -7.39557  -16.05229  -18.23156
       O    -7.92290  -16.50413  -17.55072
      H1    -8.48258  -17.10279  -18.03706
       H    -9.55184  -16.18922  -11.76063
       O    -9.78696  -15.56985  -12.46637
      H1    -9.09692  -14.90296  -12.39175
       H    -5.19508  -16.76637  -12.08387
       O    -5.79930  -15.97823  -12.10009
      H1    -5.84135  -15.75254  -11.14924
       H   -12.14089  -17.09664  -17.18006
       O   -11.85823  -18.02420  -17.04268
      H1   -12.06258  -18.11815  -16.11635
       H    -3.76688  -14.09742  -12.00435
       O    -4.25705  -13.65327  -12.74779
      H1    -5.06459  -14.14989  -12.82914
       H   -10.66439  -17.05670  -13.66227
       O   -11.34436  -17.72299  -13.79270
      H1   -11.10176  -18.45417  -13.19528
       H   -13.48061  -15.57789  -17.34322
       O   -12.50999  -15.51756  -17.26378
      H1   -12.34806  -15.06522  -18.11369
       H    -7.04892  -16.24580  -13.33736
       O    -7.60022  -16.67883  -14.02213
      H1    -8.41727  -16.18294  -13.97654
       H    -2.82904  -14.47873  -19.19728
       O    -2.22309  -14.24833  -18.46935
      H1    -2.04368  -15.09121  -18.03231
       H    -7.07576  -13.65667  -13.86245
       O    -7.78409  -13.72362  -13.22106
      H1    -7.62368  -13.00982  -12.59844
       H    -6.76246  -15.50810  -15.80410
       O    -6.11764  -14.79018  -15.54032
      H1    -6.26105  -14.15779  -16.27634
       H    -3.41244  -19.05752  -17.39306
       O    -4.18408  -18.94194  -16.83749
      H1    -4.02600  -18.09787  -16.41912
       H    -4.56718  -13.14945  -17.69254
       O    -5.33551  -12.69440  -17.32635
      H1    -5.07635  -12.55031  -16.38130
       H   -12.60143  -18.84790  -18.26440
       O   -13.19684  -19.15896  -18.95986
      H1   -13.47945  -18.29564  -19.30208
       H    -9.07472  -12.77429  -14.46194
       O    -9.20301  -12.53265  -15.38110
      H1    -9.20239  -13.34626  -15.92785

