60
frame 2 | Written by MDAnalysis XYZWriter (release 2.4.3)
       H   -10.64491   -5.92129   -4.28205
       O   -11.39107   -5.34201   -4.55422
      H1   -11.98713   -5.45377   -3.81114
       H   -10.80967  -13.02320   -5.57009
       O   -11.23912  -12.17091   -5.70928
      H1   -12.14337  -12.40494   -5.97949
       H   -13.25894   -7.94737   -5.38646
       O   -13.46427   -7.00272   -5.41560
      H1   -12.63693   -6.52913   -5.47379
       H   -13.41917  -10.32641   -5.59002
       O   -13.22610   -9.58951   -4.97745
      H1   -13.23090   -9.96711   -4.09534
       H   -13.14797  -11.90456   -2.92247
       O   -12.31517  -11.57312   -3.16735
      H1   -12.13867  -11.80141   -4.08563
       H   -10.55799   -9.35716   -1.56718
       O    -9.93787  -10.02310   -1.25594
      H1   -10.36722  -10.84697   -1.44880
       H   -14.30835  -12.38170   -6.68476
       O   -13.71055  -11.61510   -6.67023
      H1   -14.02143  -11.06617   -7.41694
       H   -11.47320  -12.53672   -1.96661
       O   -10.91916  -12.90079   -1.26569
      H1   -11.52218  -13.17702   -0.54526
       H   -10.92851   -9.75151   -4.95649
       O   -10.43221   -8.95048   -4.86343
      H1   -10.15228   -8.76032   -5.77342
       H    -6.90504  -11.68235   -6.21476
       O    -6.05699  -11.47745   -6.61504
      H1    -6.15505  -11.88718   -7.47432
       H    -6.73180   -9.06916   -8.50814
       O    -7.21407   -9.07104   -7.67282
      H1    -6.78698   -9.83815   -7.23988
       H    -8.23648   -6.03743   -4.09413
       O    -8.97147   -6.59739   -3.75960
      H1    -8.80556   -6.69095   -2.80708
       H   -15.30210   -8.28767   -2.85940
       O   -14.64268   -7.57714   -2.90234
      H1   -14.33725   -7.69295   -3.79254
       H   -12.65401   -8.14980   -2.52698
       O   -11.71024   -8.23100   -2.41761
      H1   -11.30274   -8.28519   -3.30130
       H   -10.24125  -11.37407   -7.02697
       O    -9.97042  -11.36353   -7.96616
      H1   -10.68238  -11.79965   -8.36945
       H    -8.39615   -8.89466   -4.15368
       O    -7.74277   -9.53403   -3.80920
      H1    -6.93609   -9.06044   -4.00874
       H   -11.49278   -7.52828   -7.94443
       O   -12.09729   -6.82392   -8.19048
      H1   -11.88105   -6.07343   -7.60300
       H   -10.26932   -9.81079   -7.57231
       O   -10.07192   -8.86648   -7.56188
      H1    -9.10350   -8.80216   -7.44860
       H    -8.23738  -11.17099   -4.60236
       O    -8.38120  -11.78720   -5.31518
      H1    -8.57580  -12.58080   -4.82769
       H    -5.77227  -11.09475   -2.24779
       O    -6.67072  -11.02757   -1.87838
      H1    -7.10970  -10.40963   -2.47508

