60
frame 0 | Written by MDAnalysis XYZWriter (release 2.4.3)
       H    10.28429   -4.12164    4.84976
       O    10.06265   -4.86578    4.26066
      H1    10.32371   -4.44548    3.44904
       H    14.80457   -5.69778   10.63591
       O    15.68054   -5.41390   10.28819
      H1    16.20043   -6.21002   10.37400
       H    14.03868   -8.47493    6.92031
       O    14.17211   -8.67137    7.84061
      H1    13.91879   -7.86995    8.30227
       H    13.85349   -9.70965    3.67328
       O    13.90138   -9.51161    4.60362
      H1    13.81295  -10.36975    5.04986
       H    10.63625   -6.52861   10.34050
       O    10.62787   -6.76078   11.30967
      H1     9.74057   -7.12854   11.47682
       H    15.38752   -3.14850    5.29087
       O    14.99284   -4.01925    5.49007
      H1    15.54266   -4.42937    6.18321
       H    10.17485   -8.28198    6.60690
       O    10.15515   -8.57007    7.54900
      H1    10.69516   -9.35487    7.54936
       H    10.91480   -6.98189    3.15414
       O    11.23711   -6.69247    2.27361
      H1    12.04001   -7.19164    2.14758
       H    12.48893   -5.26925    2.68469
       O    12.92430   -4.42454    2.77134
      H1    12.99480   -4.11019    1.84882
       H    15.01266   -7.42993    4.63842
       O    14.45869   -6.83640    5.20298
      H1    14.69634   -5.97167    4.87174
       H    13.55426   -6.10529    6.74511
       O    13.43151   -6.03056    7.69003
      H1    12.50489   -5.83208    7.74154
       H    15.93322   -4.85847    3.74958
       O    15.61327   -5.16569    2.91756
      H1    14.68620   -4.94736    2.86619
       H    14.41328   -8.30149   11.56204
       O    14.11989   -7.66806   10.91932
      H1    13.41194   -8.12309   10.43831
       H    11.57146   -3.64568    6.91422
       O    10.61189   -3.74120    6.94685
      H1    10.49296   -4.60136    7.39433
       H    12.15704   -7.75879    4.96120
       O    11.23190   -7.54962    5.13953
      H1    11.22525   -6.57828    5.18759
       H    13.24543   -2.91817    8.19864
       O    13.06795   -2.90579    7.26805
      H1    13.81043   -3.41876    6.91304
       H    11.54865   -3.57733   10.31783
       O    12.45252   -3.22693   10.39083
      H1    12.96876   -3.99902   10.65322
       H    15.90821   -5.49538    8.27006
       O    16.40351   -5.32386    7.46505
      H1    16.60480   -6.23470    7.16094
       H    15.97557   -8.23605    7.44792
       O    16.88561   -7.96078    7.56764
      H1    17.20593   -7.82387    6.66281
       H    10.47064   -6.96512    8.19708
       O    10.47462   -6.08784    8.58311
      H1     9.54910   -5.84495    8.53693

