60
frame 2 | Written by MDAnalysis XYZWriter (release 2.4.3)
       H    16.44984   -0.31559  -10.39661
       O    16.49392    0.59447  -10.14342
      H1    15.69454    0.80338   -9.63817
       H    14.75791    4.19765  -11.26059
       O    14.14468    3.63908  -11.74138
      H1    14.73689    2.90207  -11.92808
       H    17.88383   -0.19765  -16.11621
       O    18.67509    0.23401  -15.77905
      H1    19.40482   -0.13169  -16.30497
       H    11.28711    1.85548  -12.59602
       O    11.82076    2.61668  -12.82537
      H1    12.60431    2.62515  -12.28118
       H    17.12213    5.66170   -8.75836
       O    17.21426    5.98694   -9.65857
      H1    17.82566    5.34725  -10.01989
       H    16.22101    5.94936  -13.83321
       O    16.48988    5.61136  -14.68990
      H1    17.41694    5.43474  -14.57428
       H    18.76172    3.42247  -15.38226
       O    18.54152    2.87427  -16.14885
      H1    18.64190    1.94624  -15.81722
       H    14.05029   -2.53700  -11.45562
       O    14.60312   -3.28161  -11.18964
      H1    15.50011   -2.93200  -11.08323
       H    14.97051    3.20214  -16.72697
       O    14.94226    3.44893  -15.79910
      H1    15.77048    3.91753  -15.68759
       H    18.72478    0.73344   -7.62043
       O    17.76534    0.71592   -7.74877
      H1    17.63051    0.48119   -8.67298
       H    13.83483   -0.26738  -14.92550
       O    13.39348   -1.13241  -14.93083
      H1    13.30231   -1.38237  -14.02364
       H    16.39964    1.11409  -12.05029
       O    16.36111    1.58645  -12.87764
      H1    16.44441    0.90039  -13.57269
       H    17.35634    2.52597  -17.34977
       O    16.85527    2.04215  -18.03719
      H1    17.57271    1.48526  -18.39040
       H    17.42073   -1.75867  -11.91529
       O    17.02116   -1.86392  -11.04750
      H1    17.73203   -2.06497  -10.50140
       H    18.35571   -0.77084  -14.27003
       O    18.13128   -1.38008  -13.55133
      H1    17.70003   -2.09692  -14.03715
       H    11.97024   -1.69724  -11.14106
       O    12.62936   -1.01200  -11.34616
      H1    12.96409   -0.70299  -10.46441
       H    13.23796    3.95731  -16.01499
       O    12.50603    4.32640  -16.58396
      H1    11.76453    3.77704  -16.22292
       H    16.50911    2.03040   -7.86459
       O    15.63266    2.31094   -8.14839
      H1    15.13485    2.18853   -7.33334
       H    19.30633    2.70350  -12.70158
       O    18.57366    3.00416  -13.23811
      H1    17.84082    2.41048  -12.98951
       H    15.39216    1.68504  -15.55348
       O    15.45270    0.74525  -15.27881
      H1    15.89996    0.35977  -16.02940

