60
frame 2 | Written by MDAnalysis XYZWriter (release 2.4.3)
       H    10.14792    6.66437   10.83178
       O     9.54544    6.25851   10.20007
      H1    10.01317    5.42771   10.07057
       H     8.54585   11.07963   12.58432
       O     9.22245   10.53738   13.03066
      H1     9.72844   11.18058   13.57385
       H    13.43704    8.81164   14.87983
       O    13.37121    9.76723   15.05332
      H1    13.63733   10.13956   14.20488
       H    10.96518    9.91562    9.05794
       O    10.29514   10.17709    9.70108
      H1     9.63690   10.60505    9.13259
       H    12.99812   11.55653   12.00708
       O    13.75147   11.20483   12.48236
      H1    14.04209   10.39741   12.00568
       H     8.14629    9.15000   18.59560
       O     8.00079   10.02909   18.23217
      H1     8.23374    9.98060   17.31184
       H     9.01375    9.85315   15.12197
       O     8.77199    9.08365   15.65134
      H1     9.62593    8.67645   15.84798
       H     9.50107    8.29048   12.92137
       O     9.86968    7.39517   13.02810
      H1     9.13841    6.81069   12.77583
       H     6.64017    7.91007   13.53631
       O     6.40371    8.45512   14.30227
      H1     7.26204    8.64483   14.73293
       H    11.58141    7.14364   12.68324
       O    12.55113    7.14041   12.73717
      H1    12.71242    6.24571   12.39392
       H     4.38712   11.74840   14.63743
       O     5.31149   11.65592   14.86524
      H1     5.78513   11.85885   14.06053
       H    10.34675   13.64735   12.49190
       O     9.96364   13.47772   13.37411
      H1    10.28498   14.20434   13.94092
       H     6.12483    6.65473   11.56826
       O     6.97258    6.99101   11.89559
      H1     7.37189    7.31204   11.09050
       H    11.74900   10.29438   15.10390
       O    10.90756   10.79111   15.12755
      H1    11.02060   11.41040   15.86667
       H     8.32377   14.03581   10.90444
       O     7.62633   13.40293   10.63334
      H1     7.95480   12.95857    9.83348
       H    11.02151   11.52710   12.12115
       O    11.40393   11.99944   11.36911
      H1    11.13224   11.44228   10.62723
       H     8.44510   14.25016   14.14144
       O     7.84941   15.01270   14.23280
      H1     7.40967   14.89053   15.08231
       H     7.01259   12.49850   11.99539
       O     6.78856   11.73567   12.51783
      H1     5.93076   11.48094   12.18563
       H     4.97105    9.24685    9.45169
       O     5.66898    9.87533    9.68796
      H1     5.47431   10.22528   10.55289
       H     8.82699    8.99952   10.21177
       O     8.09939    8.57146    9.77434
      H1     7.37436    9.19987    9.72134

