60
frame 2 | Written by MDAnalysis XYZWriter (release 2.4.3)
       H    -1.49717   -0.90388    9.44145
       O    -1.11639   -0.11657    9.01559
      H1    -1.52838    0.68966    9.35044
       H    -0.01883    0.29971    5.36175
       O    -0.00109    0.80630    6.18905
      H1     0.95123    0.82599    6.40844
       H     1.54174    2.50491    8.30670
       O     2.07786    3.28582    8.45900
      H1     1.60297    3.97721    8.00853
       H     1.05198   -3.17994    8.02765
       O     0.10888   -3.46620    8.10181
      H1     0.12173   -4.25763    7.51953
       H     3.12476   -1.73729   12.38732
       O     3.68891   -0.98171   12.49212
      H1     3.22863   -0.32570   11.99069
       H     2.19537   -1.00356    8.37248
       O     2.48479   -1.89719    8.57277
      H1     3.40777   -1.93632    8.29377
       H    -0.75924    2.19100   10.67242
       O    -0.14979    2.06396   11.41057
      H1    -0.21458    2.90828   11.86977
       H     1.83113    4.78838   11.62396
       O     2.52537    4.16911   11.29858
      H1     2.09117    3.80765   10.50423
       H     3.01467    1.60161   11.29690
       O     2.26799    0.98800   11.24223
      H1     1.54937    1.65164   11.29651
       H    -0.97382   -2.46087   11.22499
       O    -1.35508   -2.43037   10.34220
      H1    -0.61851   -2.69290    9.78653
       H    -0.79280    2.24665    5.48116
       O    -1.34849    2.77376    4.89887
      H1    -1.94582    2.07991    4.52836
       H    -0.00572   -1.68000    5.06701
       O     0.72632   -1.35530    4.49439
      H1     1.48367   -1.31969    5.06925
       H     2.49973   -0.36960    6.90862
       O     2.77512   -0.17470    6.02626
      H1     3.20946    0.69451    6.15993
       H     4.34650    3.31347    5.92464
       O     3.84805    2.65296    6.44046
      H1     3.25439    3.20297    6.98959
       H     1.96396   -3.73622   10.95102
       O     2.36639   -2.88956   11.21458
      H1     2.38236   -2.33681   10.44740
       H     5.23976    1.89206    9.95935
       O     5.38625    1.57776    9.05194
      H1     4.80566    2.15365    8.52918
       H    -1.64120    3.82719    9.58988
       O    -1.98029    2.92798    9.56873
      H1    -2.60087    2.96164   10.31486
       H     5.10128    0.00091    8.02630
       O     5.06592   -0.95634    8.03475
      H1     5.71422   -1.16575    7.31639
       H    -1.23308   -0.92015    6.53972
       O    -1.24393   -1.77982    6.07614
      H1    -0.94127   -2.34636    6.80335
       H     1.88622    0.60737    9.55598
       O     1.49614    0.67498    8.66787
      H1     0.58932    0.38782    8.82335

