60
frame 2 | Written by MDAnalysis XYZWriter (release 2.4.3)
       H    14.17174   -1.29431   18.54479
       O    13.99615   -2.23356   18.37444
      H1    13.14411   -2.42114   18.78621
       H    16.90097   -1.93143   17.32886
       O    17.22028   -2.11120   18.22463
      H1    18.16470   -2.07794   18.15225
       H    16.05967   -1.78334   15.02096
       O    16.20475   -1.20592   15.80244
      H1    16.96437   -0.62622   15.53571
       H    11.84307   -6.93670   17.94495
       O    11.94350   -6.94686   18.91721
      H1    12.17719   -6.03833   19.12478
       H    18.25068   -6.27861   12.42185
       O    18.51967   -6.99995   13.02080
      H1    18.81399   -7.72681   12.41531
       H    17.17001   -4.92633   13.83741
       O    16.30910   -5.10609   13.38091
      H1    15.87504   -5.74243   13.98484
       H    15.67684   -8.53091   12.25846
       O    15.49737   -8.54111   11.31039
      H1    15.27518   -7.61092   11.18069
       H    17.43953    0.21004   13.59200
       O    18.07413    0.35239   14.30649
      H1    18.61524   -0.46971   14.37311
       H    17.97022   -5.87918   17.31789
       O    18.75315   -6.41684   17.42208
      H1    18.48230   -7.32483   17.60136
       H    19.08273   -9.66472   18.09069
       O    18.30688   -9.23440   17.68763
      H1    17.57771   -9.81612   17.75499
       H    16.62881   -3.93913   17.91347
       O    16.41505   -4.76804   17.48315
      H1    15.79382   -5.20271   18.13121
       H    13.71605   -3.83102   16.92914
       O    13.25292   -4.28309   16.21740
      H1    13.92857   -4.94615   15.92322
       H    15.38209   -8.82589   14.81048
       O    14.51573   -9.09150   15.11637
      H1    14.02041   -9.37832   14.34006
       H    10.77960   -6.34688   16.70771
       O    11.60172   -6.69562   16.32823
      H1    12.08905   -5.87934   16.11963
       H    15.38766   -6.38891   16.37892
       O    14.92531   -6.37961   15.52250
      H1    14.69134   -7.30365   15.32306
       H    15.94238   -3.78173   12.10569
       O    16.14432   -3.03002   11.50642
      H1    15.52227   -3.25190   10.80226
       H    14.61192   -3.14531   14.00491
       O    14.37111   -2.21297   13.87345
      H1    14.12781   -1.89238   14.73915
       H    12.11968  -10.66815   16.32568
       O    12.85173  -10.61059   16.94594
      H1    13.48772  -10.02806   16.51917
       H    17.87088   -9.27743   14.72345
       O    17.13714   -8.86513   14.23599
      H1    17.50383   -8.01396   13.97886
       H    15.93578  -11.75470   16.49769
       O    15.98911  -10.91540   16.95667
      H1    15.58257  -10.31525   16.31434

