60
frame 2 | Written by MDAnalysis XYZWriter (release 2.4.3)
       H   -14.50494  -11.90779   18.99457
       O   -14.38500  -12.79822   18.64420
      H1   -15.24321  -13.24783   18.62557
       H   -14.49739   -5.80749   15.02852
       O   -14.36574   -4.86480   14.95387
      H1   -14.77465   -4.60242   14.09669
       H   -12.82335  -13.94850   14.74148
       O   -12.33180  -13.61683   13.98782
      H1   -12.96828  -13.01685   13.62033
       H   -16.05614  -11.93534   15.46847
       O   -16.26862  -12.85595   15.62312
      H1   -16.57424  -13.12216   14.73234
       H   -14.15150  -13.77862   16.52816
       O   -14.19419  -14.70400   16.21721
      H1   -14.99663  -14.68214   15.67196
       H   -17.38053  -12.59080   11.85999
       O   -17.66526  -11.89250   11.22423
      H1   -16.84049  -11.76882   10.66738
       H   -11.97678  -10.36268   16.57882
       O   -12.43836   -9.71484   16.03957
      H1   -11.93049   -8.91271   16.20681
       H   -16.39234   -7.98676   17.91839
       O   -16.01275   -7.15981   17.60470
      H1   -15.06641   -7.31211   17.76222
       H   -12.52306   -7.22295   17.13779
       O   -11.82791   -7.11474   16.48983
      H1   -11.30069   -6.39852   16.93608
       H   -17.87380  -12.60645   16.95724
       O   -18.33523  -12.43837   17.78411
      H1   -18.07713  -13.19928   18.33714
       H   -16.12142  -14.32094   13.00001
       O   -17.00350  -13.97309   13.04539
      H1   -17.47321  -14.59859   13.57988
       H   -16.72112  -10.65468   12.77814
       O   -16.51026  -10.65057   13.73038
      H1   -17.26221  -10.21326   14.13250
       H   -15.20726   -7.50008   13.03143
       O   -14.90016   -7.31270   12.14349
      H1   -13.99008   -7.58475   12.21992
       H   -14.69866   -9.20619   11.79352
       O   -14.28984   -9.97593   11.34674
      H1   -13.74667   -9.58454   10.65202
       H   -17.74825   -6.43672   16.09414
       O   -17.56126   -6.33073   15.14212
      H1   -18.28194   -6.86789   14.76080
       H   -16.15700   -9.98653   17.75712
       O   -16.74891  -10.11828   18.50172
      H1   -17.16286  -10.96567   18.30769
       H   -15.30558  -10.27009   15.13180
       O   -15.07192  -10.11516   16.02880
      H1   -14.12742   -9.97354   15.95643
       H   -18.82950   -9.64883   16.24446
       O   -18.50616   -9.94655   15.37596
      H1   -18.88833  -10.82391   15.27838
       H   -13.30637  -10.64582   12.58763
       O   -12.71688  -10.95835   13.28543
      H1   -12.66988  -10.23606   13.92315
       H   -14.68523   -8.27771   15.33092
       O   -14.99639   -7.44866   14.94155
      H1   -15.73708   -7.21177   15.53037

