60
frame 2 | Written by MDAnalysis XYZWriter (release 2.4.3)
       H   -12.88378    0.01746    9.46393
       O   -12.63799    0.65392   10.13673
      H1   -12.78979    0.15786   10.94736
       H   -14.84742   -1.90866    4.96559
       O   -15.49016   -2.14953    4.31066
      H1   -16.27478   -1.65878    4.58668
       H   -16.60448    4.47177    5.61849
       O   -16.80470    5.10226    6.32706
      H1   -16.17592    4.78992    6.97336
       H   -13.79561    3.83504    7.80509
       O   -12.88021    3.64962    7.63536
      H1   -12.53977    4.46175    7.22181
       H   -15.75845   -0.90451    9.89250
       O   -15.86469   -1.81835   10.19673
      H1   -16.80583   -1.85297   10.41117
       H   -13.55935    3.73881    4.58551
       O   -13.58644    4.52770    4.00679
      H1   -13.55953    4.14068    3.12010
       H   -14.38841   -1.70135    9.14760
       O   -13.49416   -1.74797    8.88396
      H1   -13.46256   -1.74303    7.90021
       H   -15.62603    1.69032    6.39686
       O   -15.27142    0.80975    6.46976
      H1   -16.09692    0.25940    6.43669
       H   -10.47520    1.72009    4.86408
       O   -11.41523    2.01356    4.97008
      H1   -11.65773    1.67558    5.84502
       H   -15.11434    3.56377    9.22737
       O   -15.47608    3.72128    8.34253
      H1   -16.10615    2.96780    8.30042
       H   -13.19907    1.44010    4.51086
       O   -13.97076    1.06423    4.07243
      H1   -14.60127    0.94782    4.78206
       H   -18.23353    0.42122    9.53533
       O   -18.41232    0.15539   10.47446
      H1   -18.06085    0.92057   10.94914
       H   -18.18063   -1.20143    7.45850
       O   -17.22700   -1.34198    7.43619
      H1   -17.07950   -2.14068    7.97744
       H   -12.10885    1.57863    7.76879
       O   -11.65608    0.79621    7.45990
      H1   -10.78403    0.85009    7.83615
       H   -15.38632    1.75284    1.32387
       O   -16.05558    1.61922    1.99402
      H1   -16.13848    0.67164    1.96709
       H   -18.39599   -1.23524    4.32093
       O   -17.72005   -0.59192    4.07728
      H1   -17.49492   -0.80182    3.18285
       H   -15.89295    1.39852    9.28595
       O   -15.37504    0.97087   10.01084
      H1   -14.47299    1.18020    9.74517
       H   -13.92205   -0.53103    6.30525
       O   -13.75499   -1.49248    6.26418
      H1   -12.93023   -1.54074    5.79331
       H   -17.81473    2.00992    7.55372
       O   -17.42692    1.81349    8.38800
      H1   -17.96250    2.36608    9.02698
       H   -17.11721    2.47512    4.76772
       O   -16.21224    2.87801    4.70899
      H1   -15.91262    2.69259    3.81461

