60
frame 2 | Written by MDAnalysis XYZWriter (release 2.4.3)
       H    -6.02780    3.16934   17.59977
       O    -6.10064    4.11493   17.82018
      H1    -6.02674    4.56925   16.95043
       H    -2.89254   -0.97870   11.97398
       O    -3.09166   -0.10164   11.59785
      H1    -4.06725   -0.02826   11.67338
       H    -6.16452   -1.09724   14.40255
       O    -6.54929   -1.08125   13.50089
      H1    -7.49745   -1.23394   13.66578
       H    -2.77339   -0.36837   16.43773
       O    -3.31100   -0.98599   16.96463
      H1    -3.04021   -1.84589   16.63389
       H    -3.89053    2.00496   12.20777
       O    -3.85522    2.67676   11.51670
      H1    -4.69681    3.13823   11.57903
       H    -8.09132   -1.54164   18.50322
       O    -8.08403   -0.80220   17.89135
      H1    -7.42550   -1.09605   17.25569
       H    -1.20987    1.15247   17.22072
       O    -0.62793    0.40281   17.18077
      H1    -0.51701    0.26479   16.23524
       H    -7.95724    1.76851   15.29505
       O    -7.08977    1.89993   15.72383
      H1    -6.45714    1.63628   15.05286
       H    -5.91718   -2.29002   16.04685
       O    -5.88476   -1.30448   16.07258
      H1    -5.00055   -1.11147   16.40278
       H    -3.07147    3.05359   18.33462
       O    -3.19026    2.10965   18.18437
      H1    -3.93826    1.89788   18.77777
       H    -5.67110    0.85654   13.35610
       O    -5.09836    1.49035   13.83975
      H1    -4.29103    0.98731   14.05807
       H    -0.54254   -1.04637   13.14896
       O    -0.79006   -1.97557   13.08132
      H1     0.01962   -2.50600   12.99868
       H     0.53172   -1.79113   18.94011
       O     0.13239   -2.04634   18.10867
      H1    -0.08448   -1.18658   17.70398
       H    -1.57016   -2.82167   14.70202
       O    -2.17852   -2.97030   15.42030
      H1    -1.82698   -3.82926   15.69983
       H    -3.45272   -3.85934   17.76847
       O    -4.30768   -3.87350   17.28427
      H1    -4.19348   -4.56832   16.64205
       H     1.36319   -2.62516   16.80331
       O     2.09935   -2.96340   16.28396
      H1     2.49243   -2.15030   15.87791
       H     0.65688    0.82786   15.07168
       O    -0.07564    0.61414   14.47463
      H1    -0.79051    1.20569   14.77257
       H    -2.79370    2.57761   14.74818
       O    -2.80360    1.82148   15.37581
      H1    -2.88614    2.19673   16.28367
       H    -4.78357   -2.15085   12.79939
       O    -3.96732   -2.57581   13.02225
      H1    -3.68472   -2.07620   13.80721
       H    -1.64944    4.35926   15.36060
       O    -2.54550    4.51670   15.01012
      H1    -2.45776    4.67753   14.06485

