60
frame 2 | Written by MDAnalysis XYZWriter (release 2.4.3)
       H    15.47646   -6.16859    9.16092
       O    15.27194   -5.74293   10.02208
      H1    16.18272   -5.67358   10.41653
       H    14.58080  -11.06388    5.09870
       O    14.06209  -10.88223    5.89540
      H1    13.32213  -11.50120    5.93596
       H    13.27335   -7.90424    7.84506
       O    12.94166   -7.40156    8.57352
      H1    13.06142   -7.98083    9.30561
       H    17.51695   -4.90581    7.80636
       O    18.26822   -4.40724    7.46032
      H1    18.28692   -4.60708    6.51078
       H    12.79152   -8.10790    5.46871
       O    13.36692   -8.39352    6.18307
      H1    13.57133   -9.33188    5.97302
       H    17.83224   -6.01776    4.88613
       O    18.31139   -5.17716    4.91091
      H1    19.10017   -5.35408    4.38056
       H    14.95678   -2.93634    6.42805
       O    14.73918   -3.70785    6.92568
      H1    15.51988   -4.27337    6.82307
       H    11.28409   -7.10460    4.22105
       O    11.44691   -8.07383    4.35360
      H1    10.59264   -8.46584    4.53979
       H    12.23188   -9.58536    3.05972
       O    11.97265  -10.44292    2.74349
      H1    11.01801  -10.42935    2.67422
       H    11.48132   -4.95294    3.44821
       O    11.62543   -5.26975    4.37840
      H1    11.54039   -4.48866    4.92100
       H    18.05347   -9.67171    3.03994
       O    18.68262  -10.31136    2.67410
      H1    18.51825  -10.34144    1.71836
       H    17.58509   -2.46101    3.07482
       O    18.10350   -2.60101    3.87452
      H1    17.98392   -3.53427    4.15370
       H    15.07756   -5.34732    3.67409
       O    14.92071   -4.46341    3.35523
      H1    14.05512   -4.29714    3.74169
       H    18.88714   -7.48979    2.72424
       O    18.05371   -7.62608    3.22111
      H1    18.31725   -7.67734    4.12759
       H    17.42724   -4.32052    1.41990
       O    16.55257   -4.63916    1.25958
      H1    16.09819   -4.58795    2.10928
       H    15.83470   -7.53438    3.96193
       O    15.42593   -6.95008    4.59434
      H1    14.79318   -7.55023    4.99198
       H    18.54033   -6.03535   -0.18646
       O    18.09474   -6.79122    0.16957
      H1    17.60807   -6.49252    0.92182
       H    14.98386   -9.30625    1.93710
       O    15.51282   -9.19038    2.72101
      H1    15.74351  -10.09809    2.94913
       H    16.24985   -7.01774    7.49445
       O    15.82660   -6.17865    7.34158
      H1    15.64967   -6.26374    6.37708
       H    16.64503   -8.36135    9.41677
       O    16.97436   -8.43977    8.52101
      H1    16.71148   -9.38086    8.35510

