60
frame 2 | Written by MDAnalysis XYZWriter (release 2.4.3)
       H     6.85873    5.25627   18.02725
       O     6.44742    5.04105   18.86234
      H1     6.08673    5.89505   19.10098
       H     4.30576    6.48729   15.35267
       O     3.99937    5.82083   14.71586
      H1     4.72623    5.16871   14.60399
       H     5.40546    7.80915   17.16232
       O     5.49617    7.19228   16.42595
      H1     5.76867    7.72004   15.66649
       H     4.33347    6.12934   12.96505
       O     4.31068    6.16321   11.99700
      H1     3.57333    5.53462   11.84938
       H     6.40203    3.09263   15.63025
       O     6.36298    2.38493   16.28049
      H1     5.88606    2.79193   16.98700
       H     1.49609    8.18354   13.68363
       O     1.45779    8.02117   12.72530
      H1     1.20836    8.88383   12.36380
       H     8.14629    9.15000   18.59560
       O     8.00079   10.02909   18.23217
      H1     8.23374    9.98060   17.31184
       H     9.01375    9.85315   15.12197
       O     8.77199    9.08365   15.65134
      H1     9.62593    8.67645   15.84798
       H     9.50107    8.29048   12.92137
       O     9.86968    7.39517   13.02810
      H1     9.13841    6.81069   12.77583
       H     2.19975    5.65282   16.24626
       O     2.13117    6.37919   16.85835
      H1     2.02075    5.95119   17.69683
       H     6.64017    7.91007   13.53631
       O     6.40371    8.45512   14.30227
      H1     7.26204    8.64483   14.73293
       H     1.59375   10.27708   14.89620
       O     1.65505    9.35979   15.30807
      H1     2.39264    9.42117   15.91182
       H     4.08352    2.87198   15.98575
       O     3.64248    2.86387   15.12128
      H1     3.39988    3.81303   14.97910
       H     4.38712   11.74840   14.63743
       O     5.31149   11.65592   14.86524
      H1     5.78513   11.85885   14.06053
       H     6.74968    4.60883   13.68272
       O     6.56626    4.66459   14.62469
      H1     7.21627    5.28174   14.92107
       H     6.12483    6.65473   11.56826
       O     6.97258    6.99101   11.89559
      H1     7.37189    7.31204   11.09050
       H     6.33580   10.26551   17.65187
       O     5.52849    9.97210   17.22189
      H1     5.40795   10.59221   16.49977
       H     7.27728    6.77789   16.34825
       O     7.97285    6.11097   16.34119
      H1     8.68197    6.48570   15.85751
       H     3.18502   11.76937   17.21455
       O     2.94317   10.87666   17.49041
      H1     3.72018   10.32948   17.44761
       H     3.95924    7.73498   18.80427
       O     3.09624    8.06869   18.54383
      H1     2.78155    7.52547   17.77332

