60
frame 2 | Written by MDAnalysis XYZWriter (release 2.4.3)
       H     3.74241  -13.25828   13.87574
       O     4.40704  -12.61012   14.19002
      H1     5.18119  -13.11444   14.44833
       H     7.26647   -7.95576   14.07218
       O     7.92623   -7.23810   14.03425
      H1     7.93413   -7.07380   13.07762
       H     4.52662   -6.77468   14.74752
       O     4.04317   -7.58855   14.57119
      H1     4.00033   -7.54289   13.58847
       H     1.03456   -8.18072   13.39611
       O     1.35344   -7.37795   13.83485
      H1     2.20745   -7.65504   14.18938
       H     9.81838   -8.08274   14.12488
       O    10.77401   -8.25380   14.08489
      H1    11.05378   -7.78432   14.87930
       H     5.72867  -12.12470   18.57180
       O     5.78549  -12.99157   18.09970
      H1     6.33876  -12.73878   17.34302
       H     4.44377  -11.26239   13.03614
       O     4.41051  -10.47608   12.47732
      H1     4.34126  -10.88813   11.59079
       H     3.54396   -6.64101   11.14330
       O     4.11841   -7.21063   11.64637
      H1     4.37875   -7.91431   11.05357
       H     7.32850  -11.62120   12.38430
       O     7.71802  -10.77495   12.71696
      H1     7.01384  -10.41642   13.28577
       H     4.17205   -5.18263   16.72321
       O     4.73263   -4.59962   16.21618
      H1     5.55358   -5.06638   16.19889
       H     4.00603   -8.61515   16.26286
       O     4.62878   -9.08663   16.83289
      H1     4.46587   -8.66201   17.66788
       H     6.41841   -5.94237   10.90462
       O     6.54034   -6.16621   11.82786
      H1     5.69949   -6.55413   12.06633
       H     9.03222   -9.79981   17.95868
       O     9.12890   -9.33702   17.13191
      H1     9.57819   -9.99635   16.57246
       H     7.42487   -8.72095   18.09481
       O     7.44843   -8.56205   19.06449
      H1     6.76092   -7.87457   19.15366
       H     7.05679   -7.92471   11.31227
       O     7.15341   -8.56475   10.57834
      H1     7.65417   -9.28947   10.98088
       H     3.08010  -11.88055   16.63573
       O     2.89637  -10.93019   16.63686
      H1     3.76769  -10.55575   16.77789
       H     7.52023  -13.45821   15.45495
       O     6.69828  -12.93257   15.50227
      H1     6.75159  -12.20913   14.87574
       H     5.59006   -9.58577   13.81718
       O     6.25805   -9.35963   14.47162
      H1     5.76054   -9.12917   15.27726
       H     7.55399   -5.65423   14.94599
       O     7.37553   -5.07770   15.68818
      H1     7.60868   -4.23192   15.32177
       H     9.18171   -7.14596   17.15992
       O     9.15174   -6.19741   17.30441
      H1     8.55848   -5.91997   16.60897

