60
frame 2 | Written by MDAnalysis XYZWriter (release 2.4.3)
       H    15.84517   13.68820    7.99606
       O    15.97259   13.04390    7.28979
      H1    16.62791   12.43929    7.66869
       H    13.39828   18.00798    3.02022
       O    12.47401   18.21684    3.21617
      H1    12.35965   18.15206    4.18526
       H    10.81132   17.16455    7.62750
       O    10.32089   16.35918    7.38196
      H1    10.92294   15.87554    6.80054
       H    14.99991   16.06738    7.86554
       O    15.32062   15.57174    8.63194
      H1    14.65389   15.77563    9.28169
       H    14.96712   17.17443    2.75079
       O    15.34672   17.68441    3.48150
      H1    15.13485   17.16599    4.27000
       H    13.76381   15.54707   11.53646
       O    13.53533   15.92881   10.66444
      H1    12.68023   15.53400   10.48222
       H    14.13738   12.22890    4.60082
       O    13.63644   11.91491    3.82027
      H1    13.21455   11.08317    4.12830
       H    14.81135   17.49104    6.46485
       O    14.39288   16.65324    6.22478
      H1    13.43668   16.85585    6.26625
       H    12.65575   18.93540   11.78488
       O    12.64402   18.01786   12.08995
      H1    12.95123   17.48031   11.34269
       H    10.36031   17.29609    0.97472
       O    10.43505   18.24863    1.13065
      H1    11.09793   18.19940    1.84159
       H    11.45316   14.25873    5.12814
       O    11.73761   14.45020    6.01966
      H1    12.28182   13.71609    6.26292
       H    11.66505   18.64270    6.34361
       O    11.96369   17.91156    5.77989
      H1    11.25066   17.27185    5.90910
       H    10.64548   13.40841    3.10622
       O    11.46339   13.93632    3.27605
      H1    12.20272   13.31926    3.14917
       H    13.16590   11.42049    6.94382
       O    13.42905   12.30514    6.62772
      H1    14.27331   12.47891    7.05669
       H    15.92056   14.16362    4.70860
       O    15.15787   14.53818    4.21982
      H1    14.72500   15.10836    4.85151
       H    10.82971   15.44096    8.86948
       O    11.20830   15.12271    9.69923
      H1    10.46316   15.01973   10.27714
       H    18.24953   16.91116    7.45395
       O    17.77847   16.07307    7.48882
      H1    16.94230   16.39182    7.83904
       H    17.04996   13.59336    1.98556
       O    17.38705   14.48393    2.16146
      H1    16.76856   14.76315    2.84436
       H    13.69246   15.90153    0.98906
       O    14.47587   16.37816    1.26399
      H1    14.85450   16.62293    0.40538
       H    16.76702   18.72492    3.43097
       O    17.50632   19.09277    2.94078
      H1    17.82413   18.30762    2.51984

