60
frame 2 | Written by MDAnalysis XYZWriter (release 2.4.3)
       H     1.97703   12.03152   -2.63550
       O     1.20015   11.45114   -2.51197
      H1     0.42644   12.02157   -2.54760
       H     4.04350   13.38742    0.73376
       O     3.25741   13.97692    0.80263
      H1     2.91993   13.94226   -0.09726
       H     3.72443   11.97180    3.92021
       O     3.72168   11.82841    4.88170
      H1     4.64158   11.97569    5.08395
       H     5.81403   15.48711    1.08949
       O     6.60811   15.43560    1.62369
      H1     6.60662   16.22808    2.12819
       H     2.97643   13.72635   -2.90693
       O     3.49774   13.14187   -2.32649
      H1     4.37705   13.20532   -2.68627
       H     5.85050   16.25679   -1.40879
       O     6.55422   16.32114   -2.07233
      H1     6.92503   17.21547   -1.93000
       H     6.39509   13.39276   -0.46331
       O     6.09622   13.25280    0.44595
      H1     6.41557   13.99618    0.93762
       H    -0.95906   12.84655    0.82884
       O    -1.46957   13.26090    0.12992
      H1    -2.31770   13.16180    0.49136
       H     3.88532   15.78605    0.40394
       O     4.54755   16.36446   -0.00163
      H1     4.03277   17.03632   -0.45775
       H     4.34174    9.63735    1.42720
       O     4.45101   10.57925    1.36685
      H1     4.51693   10.71669    0.41777
       H     0.58296   11.84515    1.97364
       O    -0.31443   12.09130    2.24174
      H1    -0.13285   12.74488    2.94565
       H     0.57160   14.56631   -3.86909
       O     1.19449   14.57202   -3.14733
      H1     1.62753   15.43660   -3.20434
       H    -1.37442   13.26318   -3.22188
       O    -1.32760   12.65580   -2.45746
      H1    -1.31613   13.23058   -1.70236
       H     1.25445    9.67840    0.34585
       O     0.71852   10.47584    0.04699
      H1     1.20453   10.69821   -0.76319
       H     2.68711   12.83315    1.78306
       O     2.39741   12.04836    2.28482
      H1     3.02084   11.38916    1.96870
       H    -0.25951   14.61617   -0.20805
       O     0.22419   15.43654   -0.45841
      H1     0.30087   15.31942   -1.42860
       H     1.45472   16.16957    3.11817
       O     1.58088   15.95759    4.06854
      H1     1.89621   16.77244    4.41954
       H     4.15418   18.84104   -1.17230
       O     3.33144   18.34244   -1.20313
      H1     3.33691   18.01778   -2.12310
       H     3.85458    9.86940   -1.38680
       O     4.42453   10.67952   -1.41400
      H1     3.84796   11.29917   -1.92655
       H     2.22002   17.09621    1.24718
       O     1.39013   16.66017    1.50068
      H1     1.10136   16.17230    0.75617

