60
frame 2 | Written by MDAnalysis XYZWriter (release 2.4.3)
       H    15.13456   -3.57130   -2.40163
       O    15.65166   -3.97889   -1.63634
      H1    15.70435   -4.89680   -1.89037
       H    14.11501    1.12078    3.88313
       O    14.46019    0.62493    3.14417
      H1    13.91658   -0.16661    3.26250
       H    17.53637   -3.62731   -1.68337
       O    18.47510   -3.42390   -1.79366
      H1    18.79887   -4.07703   -2.40164
       H    17.58509   -2.46101    3.07482
       O    18.10350   -2.60101    3.87452
      H1    17.98392   -3.53427    4.15370
       H    12.81716   -2.22895    4.17177
       O    13.25302   -2.35636    3.30456
      H1    12.56298   -2.17062    2.64821
       H    15.07756   -5.34732    3.67409
       O    14.92071   -4.46341    3.35523
      H1    14.05512   -4.29714    3.74169
       H    14.72970   -1.74495   -0.50848
       O    14.99425   -0.83973   -0.69935
      H1    14.36710   -0.27361   -0.25831
       H    18.31859   -0.36441   -1.21795
       O    18.88020    0.16053   -0.65950
      H1    18.91571   -0.32777    0.17397
       H    17.42724   -4.32052    1.41990
       O    16.55257   -4.63916    1.25958
      H1    16.09819   -4.58795    2.10928
       H    16.45828   -1.19953    1.03473
       O    16.80989   -1.86092    1.63730
      H1    16.54352   -2.65422    1.17876
       H    12.79886    1.53264   -2.54817
       O    13.61890    1.07875   -2.24725
      H1    14.14337    1.77615   -1.84230
       H    18.89133    2.64413    1.78271
       O    18.22237    2.73336    2.47006
      H1    17.39962    2.94420    2.00474
       H    16.37990   -1.15005    5.17667
       O    15.80536   -1.25171    5.95631
      H1    16.43957   -1.41651    6.66396
       H    17.50725    1.67599    3.58447
       O    17.06160    0.93310    4.03690
      H1    16.24302    0.81719    3.54973
       H    14.34569    1.57628    1.64484
       O    14.27394    1.83874    0.70761
      H1    13.72816    2.64293    0.70732
       H    15.65474    2.72232    0.75128
       O    16.36562    3.36384    0.59371
      H1    16.75496    2.98862   -0.21335
       H    16.89906   -0.80793   -1.72479
       O    17.38215   -0.75728   -2.54586
      H1    17.87334   -1.59297   -2.64357
       H    14.26108   -3.66573   -0.25370
       O    13.62321   -3.21663    0.31274
      H1    13.83950   -3.59395    1.16691
       H    11.74928   -1.20313    0.95757
       O    11.15816   -1.78197    1.40876
      H1    10.25053   -1.51667    1.16999
       H    12.03425   -4.45243   -2.07495
       O    11.83254   -3.60731   -1.67331
      H1    12.49395   -3.50809   -0.96366

