60
frame 2 | Written by MDAnalysis XYZWriter (release 2.4.3)
       H    14.58080  -11.06388    5.09870
       O    14.06209  -10.88223    5.89540
      H1    13.32213  -11.50120    5.93596
       H    13.33929  -15.77760   11.15474
       O    13.79747  -16.62363   10.98409
      H1    14.69904  -16.52901   11.32048
       H    10.75148   -9.87719   13.05364
       O    10.41941  -10.79102   12.99961
      H1     9.45926  -10.66144   12.89203
       H     9.23395  -14.77716   12.13633
       O     9.97132  -15.19303   11.63051
      H1    10.13331  -16.03848   12.12121
       H    14.45418  -14.71976    6.30916
       O    13.77637  -14.50905    5.69252
      H1    12.93240  -14.72244    6.12254
       H    10.83821  -13.98486    7.45481
       O    11.67015  -14.47946    7.62918
      H1    12.08777  -14.00504    8.38080
       H    15.80866  -12.90275    9.35674
       O    15.91294  -13.78671    9.73117
      H1    15.69424  -14.29764    8.94150
       H    15.86507  -15.94229    7.70339
       O    15.93996  -15.03850    7.40168
      H1    16.77179  -15.01999    6.90344
       H    11.02783   -8.47555   10.15262
       O    11.06298   -8.46516   11.13216
      H1    10.49446   -7.66897   11.32967
       H    11.20273  -11.10326   11.47579
       O    11.86254  -11.40770   10.81556
      H1    11.62222  -10.81467   10.08667
       H     8.81138  -13.40582    6.44424
       O     9.19071  -13.52699    7.33280
      H1     8.83337  -12.83680    7.89143
       H    17.14476  -10.48120   12.11865
       O    16.74502  -11.32503   12.34873
      H1    15.84464  -11.12617   12.66616
       H    10.87667  -15.55430    8.64902
       O    10.44556  -16.23438    9.17875
      H1    10.20985  -15.77529    9.98118
       H    13.20015  -13.38455   15.26729
       O    13.85625  -13.44945   14.57724
      H1    13.41982  -14.05381   13.95656
       H    16.75762  -14.08390   11.17177
       O    17.23394  -14.09455   12.01569
      H1    17.38610  -13.15604   12.14607
       H    16.86800  -11.41964    8.16071
       O    15.91832  -11.37405    8.33281
      H1    15.52639  -11.57427    7.45309
       H    12.60516  -10.17410    7.78723
       O    11.73205  -10.12080    8.17102
      H1    11.35944   -9.39324    7.67343
       H    12.67672  -12.79658    9.98093
       O    12.97333  -13.70897    9.82166
      H1    13.94131  -13.61930    9.94135
       H    13.93449  -11.47352   13.55201
       O    14.10953  -10.76354   12.91955
      H1    13.49646  -10.99035   12.22164
       H    11.99196  -15.47076   12.33990
       O    12.63818  -14.77861   12.46816
      H1    12.47056  -14.19723   11.70812

