60
frame 2 | Written by MDAnalysis XYZWriter (release 2.4.3)
       H   -14.72598  -14.42615    3.66154
       O   -15.50850  -14.03947    3.31524
      H1   -15.10425  -13.35844    2.80431
       H   -14.27579  -13.82258    6.32125
       O   -14.36273  -13.28059    7.12010
      H1   -14.72891  -13.92906    7.72221
       H   -10.80707  -10.17378    8.69988
       O   -11.30915  -10.83740    9.18323
      H1   -10.73459  -11.08631    9.89642
       H   -10.45519   -8.38092    7.02577
       O   -10.18243   -8.51524    7.93722
      H1    -9.17957   -8.57364    7.87885
       H    -9.47790  -12.33880    6.59556
       O   -10.25117  -12.65585    6.13261
      H1   -10.82820  -13.08370    6.79230
       H   -12.52445  -11.77790    2.05189
       O   -13.20371  -11.08700    2.01630
      H1   -13.48508  -10.86279    2.91991
       H   -11.97107   -7.21005    5.48559
       O   -11.32275   -7.94957    5.59939
      H1   -11.88465   -8.71359    5.84246
       H   -10.69780  -11.94488    4.61680
       O   -10.99564  -11.33445    3.93530
      H1   -10.28639  -11.37540    3.29822
       H   -16.02909  -11.37638    5.42665
       O   -15.40974  -11.20648    6.12222
      H1   -15.39567  -12.06128    6.53428
       H   -12.06624   -8.23024    3.95544
       O   -12.50633   -8.07420    3.10149
      H1   -13.37578   -8.47531    3.25066
       H   -15.40973   -8.61696    7.73873
       O   -14.84667   -8.14102    7.08419
      H1   -14.94851   -7.24115    7.40239
       H    -9.24698  -10.89673    5.32245
       O    -8.35516  -10.75669    4.98113
      H1    -8.46970  -10.66257    4.02980
       H   -17.37179  -11.24583    8.25709
       O   -16.57446  -10.84520    8.66129
      H1   -15.83272  -11.22787    8.17463
       H   -13.40562   -8.69438    8.48620
       O   -12.94231   -8.71616    9.33651
      H1   -12.40520   -9.52285    9.30239
       H   -17.23039  -12.54729    4.06363
       O   -17.19832  -11.58495    4.05654
      H1   -17.92948  -11.25144    3.52483
       H   -14.69866   -9.20619   11.79352
       O   -14.28984   -9.97593   11.34674
      H1   -13.74667   -9.58454   10.65202
       H   -15.75377   -9.18447    3.16910
       O   -14.85656   -9.38234    3.45736
      H1   -14.91226   -9.36890    4.42520
       H   -16.22740   -8.25924    5.84792
       O   -16.98862   -8.67118    5.35957
      H1   -16.92022   -9.57152    5.67302
       H   -12.64651  -13.79932    7.92226
       O   -11.81288  -13.77253    8.40264
      H1   -11.77203  -12.87532    8.73883
       H   -12.53509  -10.90810    4.95514
       O   -12.82293  -10.26461    5.61002
      H1   -13.62490  -10.61274    6.05530

