60
frame 2 | Written by MDAnalysis XYZWriter (release 2.4.3)
       H    19.23516   11.32712   -4.23944
       O    19.25020   11.08489   -3.32632
      H1    18.39391   11.35772   -2.96123
       H    16.40168   15.65759   -9.83523
       O    17.08146   15.46738  -10.52934
      H1    16.81916   14.61033  -10.88309
       H    18.12959   12.04889   -7.15920
       O    17.76602   12.02547   -8.03094
      H1    18.08029   12.88209   -8.40477
       H    17.87817    9.08489  -10.79319
       O    17.83959    9.01104  -11.74760
      H1    16.96520    8.71338  -11.88198
       H    18.58443   11.68423  -13.27318
       O    18.11833   11.78139  -12.42671
      H1    17.97730   10.87626  -12.14103
       H    13.21609   12.87240   -8.43465
       O    12.97027   12.18622   -9.05722
      H1    13.54815   11.46471   -8.80902
       H    15.34287   13.47356  -12.58359
       O    15.96279   13.29389  -11.90642
      H1    16.55280   12.63275  -12.32383
       H    17.12411   17.37318   -7.84277
       O    17.97593   17.16286   -7.44647
      H1    18.14182   17.79980   -6.76886
       H    18.77052   15.16418   -7.83359
       O    18.74664   14.58256   -8.60271
      H1    18.34897   15.14432   -9.26546
       H    17.34858   10.60413   -9.03075
       O    17.13818    9.70733   -9.29596
      H1    17.15618    9.26792   -8.45150
       H    16.58421   12.38418   -1.78330
       O    16.71988   12.13587   -2.72274
      H1    17.07812   12.93980   -3.11802
       H    14.25609   14.03540   -7.51009
       O    13.48850   14.50542   -7.89160
      H1    13.00593   14.75558   -7.10941
       H    16.02693   17.94913  -12.14359
       O    15.22165   18.11198  -11.61368
      H1    14.52603   18.13920  -12.27059
       H    17.88349   14.07096  -13.70767
       O    18.45994   14.68970  -14.18257
      H1    18.18290   15.57617  -13.82919
       H    14.50014   16.04560   -9.05687
       O    15.20691   16.68061   -9.09939
      H1    15.05337   17.12319   -9.95965
       H    15.93271   12.74337   -6.47460
       O    15.93898   13.68558   -6.72970
      H1    16.48213   13.70684   -7.52716
       H    14.08513    8.97929   -8.32623
       O    14.41351    9.88307   -8.19358
      H1    15.25231    9.93607   -8.68021
       H    15.22688   10.51918   -6.49185
       O    15.51582   10.94895   -5.64885
      H1    15.85587   10.17939   -5.17186
       H    16.75273   14.80088   -5.09831
       O    16.65944   15.38016   -4.34896
      H1    17.54144   15.46322   -3.97772
       H    18.00693   17.06678  -12.65637
       O    17.15431   16.77601  -12.99476
      H1    16.83583   16.14127  -12.31136

