60
frame 2 | Written by MDAnalysis XYZWriter (release 2.4.3)
       H    -7.35665   10.58323   10.93757
       O    -7.23489   11.31025   11.59244
      H1    -8.05073   11.21982   12.10020
       H   -10.19511   11.89196   13.13115
       O    -9.31362   12.24196   12.88662
      H1    -8.79284   12.24523   13.71396
       H   -11.34326    9.68930   17.80046
       O   -10.58420    9.63012   17.23059
      H1   -10.39158   10.53253   16.93484
       H    -9.30843    8.26375   11.66324
       O    -8.77081    8.99093   12.01537
      H1    -8.97854    8.99299   12.92633
       H   -10.51164    7.01608    9.85884
       O    -9.80572    6.91623   10.50721
      H1   -10.13996    6.33857   11.20449
       H   -12.10465   11.07882   12.95435
       O   -12.31576   11.58484   13.73870
      H1   -12.79177   10.89034   14.25421
       H   -11.54123    9.54394   11.39624
       O   -11.31940   10.45356   11.64833
      H1   -10.38808   10.34216   11.88646
       H   -10.24309    8.64759   15.52371
       O   -10.31222    8.15638   14.70009
      H1   -11.24415    8.23318   14.51370
       H   -11.31027    4.73155   12.55600
       O   -10.75878    5.51061   12.65246
      H1   -10.10112    5.25166   13.30540
       H   -13.41889    4.78913   15.17994
       O   -13.84976    4.01128   15.58653
      H1   -13.29742    3.27074   15.20530
       H   -13.38081    8.93937   10.29044
       O   -13.06715    8.34498   10.98886
      H1   -13.42104    8.81651   11.80134
       H   -12.68886    9.04388   16.04808
       O   -13.42691    9.09912   15.40916
      H1   -13.97778    8.41086   15.77511
       H    -9.47785    3.23395   16.35468
       O    -9.86239    3.83232   15.71805
      H1    -9.42447    4.66431   15.89212
       H    -6.24024    7.11334   13.52517
       O    -6.26115    7.08953   12.55106
      H1    -7.20771    7.13684   12.40420
       H    -9.23651    7.07046   15.77744
       O    -8.65717    6.33304   16.02374
      H1    -8.38594    6.51105   16.93322
       H   -14.66911    7.50640   13.70499
       O   -15.43025    7.84015   13.19735
      H1   -16.15942    8.08056   13.75231
       H   -12.06833    6.15396   17.31396
       O   -12.68641    6.82837   17.06336
      H1   -13.49258    6.61222   17.48928
       H   -12.60424    6.54756   15.20712
       O   -12.85890    6.34511   14.32144
      H1   -12.06254    6.08371   13.80670
       H    -7.01782    7.68309   15.82705
       O    -6.43626    8.36548   15.43150
      H1    -5.66430    8.30269   15.97297
       H    -9.25717   12.25850   15.72210
       O   -10.11203   12.13033   16.17100
      H1   -10.76087   12.51625   15.57045

