60
frame 2 | Written by MDAnalysis XYZWriter (release 2.4.3)
       H     1.92608   -7.23860  -10.22169
       O     1.74979   -6.78926  -11.06202
      H1     1.93859   -5.84032  -10.89600
       H     3.11100  -10.72986   -6.86848
       O     2.37369  -10.26375   -7.28990
      H1     2.73139   -9.83831   -8.08344
       H    -4.50176   -9.03138   -5.67241
       O    -5.27872   -8.61449   -5.29794
      H1    -5.71072   -8.27134   -6.06487
       H     1.10099   -7.86594   -5.63675
       O     2.01323   -8.14513   -5.53934
      H1     2.10610   -8.97288   -6.03550
       H     0.39865   -8.35571   -3.39951
       O     0.34681   -7.73819   -2.65319
      H1     1.15299   -7.25759   -2.77644
       H     3.83329   -7.04546   -6.74649
       O     4.37420   -6.95617   -7.53267
      H1     5.09324   -6.35643   -7.24797
       H     0.05904   -4.91145   -9.09474
       O    -0.70455   -4.33526   -9.07038
      H1    -0.77954   -4.23111   -8.11416
       H    -0.82415   -6.43101   -5.30320
       O    -0.16779   -6.80708   -5.92204
      H1    -0.71773   -7.08350   -6.65883
       H    -1.39770   -5.91191   -9.64335
       O    -1.72360   -6.80869   -9.72234
      H1    -1.34649   -7.17313  -10.54958
       H    -3.49990   -5.21566   -4.90881
       O    -2.77769   -5.86058   -4.81456
      H1    -3.08053   -6.50518   -4.15360
       H    -4.24452   -7.83468   -3.98094
       O    -3.56935   -7.75440   -3.29853
      H1    -3.08403   -8.56936   -3.30128
       H     0.91703   -5.94632   -7.15422
       O     1.47132   -5.55652   -7.82848
      H1     1.90277   -4.81926   -7.38224
       H    -4.21995   -6.34664   -7.39396
       O    -4.99289   -6.31841   -7.93127
      H1    -4.85059   -5.56307   -8.54659
       H    -1.57694  -10.83208   -3.40460
       O    -1.36141   -9.88094   -3.38441
      H1    -1.37284   -9.67533   -2.43551
       H    -1.07112  -11.27666  -10.82815
       O    -0.53240  -10.71052  -10.24308
      H1    -1.00579  -10.64099   -9.40984
       H    -3.43341  -10.99223   -5.13624
       O    -3.10865  -10.15501   -5.51487
      H1    -2.21729  -10.07343   -5.07600
       H    -1.52443  -12.03212   -7.44234
       O    -1.87536  -11.12209   -7.57439
      H1    -2.44083  -10.98359   -6.82427
       H    -0.57061   -3.22878   -5.99006
       O    -1.15866   -3.92627   -6.29664
      H1    -1.56251   -4.20596   -5.48178
       H    -1.14987   -8.12900   -8.61867
       O    -0.57808   -8.72402   -8.11399
      H1    -1.12039   -9.45429   -7.72431
       H     3.14087   -7.61047   -8.41217
       O     2.59593   -8.23264   -8.98116
      H1     1.71039   -8.17658   -8.58842

