60
frame 2 | Written by MDAnalysis XYZWriter (release 2.4.3)
       H   -11.04506    7.13994    5.12478
       O   -10.50500    7.51451    4.42173
      H1    -9.65716    7.11959    4.55536
       H   -10.55597   10.14344    5.27221
       O    -9.90447   10.84324    5.33562
      H1   -10.26933   11.40910    6.07987
       H    -7.76216    6.23881    2.84210
       O    -7.81495    6.70080    3.71908
      H1    -8.24672    7.53944    3.44525
       H    -4.57746   11.94596    5.51876
       O    -4.97471   11.56765    6.28539
      H1    -5.35655   10.75898    5.90509
       H    -5.49361    7.29253    6.87153
       O    -5.51909    7.93437    7.60375
      H1    -4.65143    8.30828    7.62444
       H    -5.89486   14.13696    1.89777
       O    -5.89330   13.97363    2.83725
      H1    -6.55256   13.27038    2.94970
       H    -5.33963    9.66729    4.46142
       O    -6.20701    9.49096    4.85306
      H1    -6.81585    9.72528    4.13809
       H    -8.48686    9.90533    6.22713
       O    -7.96405    9.54979    6.96594
      H1    -7.09398    9.50229    6.55741
       H    -9.12251   10.04190    3.45638
       O    -8.53677    9.31438    3.29202
      H1    -8.51997    9.34257    2.33354
       H    -9.12317    8.82913   -0.06162
       O    -9.49187    9.20207    0.76379
      H1   -10.14010    8.57759    1.08570
       H    -7.21338   11.51930    2.37062
       O    -6.89653   11.26507    1.49721
      H1    -5.92984   11.31728    1.55685
       H    -6.06692   12.84715    7.06386
       O    -6.76606   13.41152    7.44481
      H1    -7.49598   12.83537    7.72128
       H    -8.20578   11.78086    4.69010
       O    -8.07597   12.27792    3.87660
      H1    -8.73573   13.00751    3.89416
       H    -2.65947    8.44875    4.13965
       O    -3.34129    7.97704    4.63952
      H1    -3.91484    7.61048    3.92073
       H    -3.19572    9.12356    6.16799
       O    -3.18290    9.41246    7.06684
      H1    -3.42494   10.36782    7.03668
       H    -8.59982    7.80685    6.95524
       O    -9.09021    6.99146    7.03217
      H1    -8.54419    6.44350    7.60070
       H    -4.80733    7.45908    1.27602
       O    -4.49935    7.82976    0.42967
      H1    -3.54491    7.75309    0.50455
       H    -3.24331   10.72478    3.96033
       O    -4.10389   11.06065    3.70069
      H1    -3.96119   11.67053    2.96051
       H    -5.23972    5.78559    2.74556
       O    -5.10707    6.72791    2.89917
      H1    -5.91535    6.93244    3.38147
       H    -6.90988    6.03862    5.23516
       O    -6.47102    5.72541    6.04779
      H1    -5.66179    5.28187    5.75009

