60
frame 0 | Written by MDAnalysis XYZWriter (release 2.4.3)
       H    14.22940    3.67087   10.45920
       O    14.01281    2.75325   10.43715
      H1    14.80128    2.33217   10.81790
       H    14.80457   -5.69778   10.63591
       O    15.68054   -5.41390   10.28819
      H1    16.20043   -6.21002   10.37400
       H    17.67554   -4.39383    8.11971
       O    18.48252   -3.84664    8.09695
      H1    18.70179   -3.75813    7.15047
       H    16.52613    0.13506    9.91164
       O    15.90058    0.72266    9.45527
      H1    16.48099    1.22975    8.83973
       H    13.75372    1.31299   16.02099
       O    14.70490    1.44287   16.01075
      H1    14.81501    2.24692   15.46698
       H    19.66205    1.44157   14.85896
       O    19.06223    1.43245   15.60739
      H1    18.23482    1.80176   15.25201
       H    15.70080    3.27295   13.45241
       O    15.09706    3.31702   14.17281
      H1    15.59236    3.93476   14.73145
       H    17.59645   -1.94282   14.99507
       O    17.81608   -2.85579   15.25040
      H1    18.57781   -3.07079   14.69596
       H    18.52675   -0.55280   11.32269
       O    17.59900   -0.60469   11.59048
      H1    17.42105   -1.55258   11.57476
       H    15.87075   -5.30870   12.85309
       O    15.80959   -4.71110   13.61298
      H1    16.30623   -5.14209   14.31220
       H    15.94652   -0.27766   14.16000
       O    16.91160   -0.29082   14.31215
      H1    17.22013   -0.51414   13.40846
       H    16.44806   -1.73129    4.61432
       O    16.02397   -1.49774    5.44843
      H1    16.72957   -1.24486    6.07146
       H    14.27551    1.20645    7.42281
       O    13.96430    2.03157    7.77945
      H1    14.22784    2.00039    8.70924
       H    18.88835    0.84727   17.27790
       O    18.61174    0.87951   18.22563
      H1    19.19547    0.21600   18.68195
       H    18.25945   -0.09842    7.86375
       O    18.05091   -0.83090    7.31365
      H1    18.21667   -1.62416    7.86995
       H    16.42696   -3.58655   12.06654
       O    16.80162   -3.23035   11.23888
      H1    16.34130   -3.89424   10.66598
       H    17.30971    2.91668   11.35414
       O    16.44106    2.68661   11.73801
      H1    16.59777    1.81750   12.18219
       H    13.52030   -0.62385   13.68377
       O    14.19368    0.08120   13.72725
      H1    14.10464    0.45108   14.62393
       H    12.62867    2.20380   11.47682
       O    12.23510    1.75657   12.24841
      H1    12.90738    1.15198   12.56091
       H    18.45953    2.11330    7.41203
       O    18.06027    1.79731    8.23130
      H1    18.64481    2.10078    8.95338

