60
frame 2 | Written by MDAnalysis XYZWriter (release 2.4.3)
       H     7.26647   -7.95576   14.07218
       O     7.92623   -7.23810   14.03425
      H1     7.93413   -7.07380   13.07762
       H     9.81838   -8.08274   14.12488
       O    10.77401   -8.25380   14.08489
      H1    11.05378   -7.78432   14.87930
       H    13.27335   -7.90424    7.84506
       O    12.94166   -7.40156    8.57352
      H1    13.06142   -7.98083    9.30561
       H    10.75148   -9.87719   13.05364
       O    10.41941  -10.79102   12.99961
      H1     9.45926  -10.66144   12.89203
       H    10.42487   -5.85221   11.21798
       O    10.05856   -5.81804   12.12280
      H1    10.77399   -6.13974   12.66642
       H    11.02783   -8.47555   10.15262
       O    11.06298   -8.46516   11.13216
      H1    10.49446   -7.66897   11.32967
       H    11.20273  -11.10326   11.47579
       O    11.86254  -11.40770   10.81556
      H1    11.62222  -10.81467   10.08667
       H     7.32850  -11.62120   12.38430
       O     7.71802  -10.77495   12.71696
      H1     7.01384  -10.41642   13.28577
       H     9.03222   -9.79981   17.95868
       O     9.12890   -9.33702   17.13191
      H1     9.57819   -9.99635   16.57246
       H    15.38209   -8.82589   14.81048
       O    14.51573   -9.09150   15.11637
      H1    14.02041   -9.37832   14.34006
       H    10.77960   -6.34688   16.70771
       O    11.60172   -6.69562   16.32823
      H1    12.08905   -5.87934   16.11963
       H     7.05679   -7.92471   11.31227
       O     7.15341   -8.56475   10.57834
      H1     7.65417   -9.28947   10.98088
       H    13.20015  -13.38455   15.26729
       O    13.85625  -13.44945   14.57724
      H1    13.41982  -14.05381   13.95656
       H    12.79313   -7.43453   12.16408
       O    13.12403   -6.63749   12.64617
      H1    13.10931   -5.96465   11.95897
       H     5.59006   -9.58577   13.81718
       O     6.25805   -9.35963   14.47162
      H1     5.76054   -9.12917   15.27726
       H    12.11968  -10.66815   16.32568
       O    12.85173  -10.61059   16.94594
      H1    13.48772  -10.02806   16.51917
       H    10.47485  -11.14842   14.73332
       O    10.44647  -11.26574   15.70168
      H1    10.05672  -12.14480   15.76888
       H    12.67672  -12.79658    9.98093
       O    12.97333  -13.70897    9.82166
      H1    13.94131  -13.61930    9.94135
       H    13.93449  -11.47352   13.55201
       O    14.10953  -10.76354   12.91955
      H1    13.49646  -10.99035   12.22164
       H    11.99196  -15.47076   12.33990
       O    12.63818  -14.77861   12.46816
      H1    12.47056  -14.19723   11.70812

