60
frame 2 | Written by MDAnalysis XYZWriter (release 2.4.3)
       H     6.52026   -5.42789    1.11715
       O     5.73088   -5.96042    0.91811
      H1     5.17135   -5.39222    0.39230
       H    11.85464   -5.85545    1.44331
       O    11.45411   -5.00732    1.68009
      H1    11.32608   -4.56444    0.80799
       H    11.48132   -4.95294    3.44821
       O    11.62543   -5.26975    4.37840
      H1    11.54039   -4.48866    4.92100
       H     5.54771   -5.00600   -2.00221
       O     5.29013   -4.29941   -1.39946
      H1     5.97272   -3.60903   -1.52803
       H    12.81716   -2.22895    4.17177
       O    13.25302   -2.35636    3.30456
      H1    12.56298   -2.17062    2.64821
       H     8.04471   -4.78486    2.64564
       O     7.51198   -4.36474    1.93392
      H1     8.12945   -4.30739    1.20183
       H     6.25051   -3.03587    1.92928
       O     5.52279   -2.46737    2.25692
      H1     4.96098   -2.37877    1.47581
       H     8.46274   -0.37346   -3.56139
       O     8.96646   -0.54436   -2.77854
      H1     9.87953   -0.66720   -3.10566
       H    11.73216   -1.90842   -2.86040
       O    11.56111   -1.30675   -3.57504
      H1    12.45071   -1.06215   -3.86201
       H     8.86383   -0.43069   -0.45491
       O     8.62358   -0.87632    0.35483
      H1     8.03277   -0.27420    0.81846
       H     9.78666   -5.67685   -0.00899
       O     9.58215   -6.60677   -0.12914
      H1     8.88495   -6.56115   -0.78745
       H     8.76069   -3.57828   -0.63185
       O     9.51127   -3.76418   -0.03483
      H1    10.04245   -2.96871    0.09177
       H     7.83221   -0.52742    2.53103
       O     7.05216   -0.05883    2.25717
      H1     6.50478   -0.80520    1.99692
       H    10.68126   -4.18127   -3.41109
       O    10.36653   -3.70770   -4.17481
      H1    10.95937   -2.95879   -4.22360
       H     7.66774   -3.34791   -2.48651
       O     7.64333   -2.79797   -1.68036
      H1     8.18266   -2.04286   -1.94258
       H    14.26108   -3.66573   -0.25370
       O    13.62321   -3.21663    0.31274
      H1    13.83950   -3.59395    1.16691
       H    11.74928   -1.20313    0.95757
       O    11.15816   -1.78197    1.40876
      H1    10.25053   -1.51667    1.16999
       H    12.03425   -4.45243   -2.07495
       O    11.83254   -3.60731   -1.67331
      H1    12.49395   -3.50809   -0.96366
       H     6.46118   -0.57698   -0.55412
       O     5.52860   -0.49832   -0.21382
      H1     5.34306    0.35466   -0.62376
       H    11.35770    1.06323   -0.03913
       O    11.29978    0.62340   -0.91395
      H1    12.24463    0.52777   -1.08960

