60
frame 2 | Written by MDAnalysis XYZWriter (release 2.4.3)
       H    -9.36152  -10.87849   12.11350
       O   -10.18954  -10.91187   11.61534
      H1   -10.86462  -11.02747   12.25915
       H   -12.82335  -13.94850   14.74148
       O   -12.33180  -13.61683   13.98782
      H1   -12.96828  -13.01685   13.62033
       H   -17.38053  -12.59080   11.85999
       O   -17.66526  -11.89250   11.22423
      H1   -16.84049  -11.76882   10.66738
       H   -12.21854   -8.10540   10.92197
       O   -12.14766   -7.68866   11.79326
      H1   -11.92679   -6.78303   11.55419
       H   -18.92758   -8.22732    8.86005
       O   -17.97384   -8.20344    9.09512
      H1   -17.62420   -8.84348    8.46349
       H   -10.80707  -10.17378    8.69988
       O   -11.30915  -10.83740    9.18323
      H1   -10.73459  -11.08631    9.89642
       H   -14.26498  -14.94820   10.91126
       O   -14.11976  -14.24346   11.56115
      H1   -13.24377  -13.93223   11.31829
       H   -15.40973   -8.61696    7.73873
       O   -14.84667   -8.14102    7.08419
      H1   -14.94851   -7.24115    7.40239
       H   -17.37179  -11.24583    8.25709
       O   -16.57446  -10.84520    8.66129
      H1   -15.83272  -11.22787    8.17463
       H   -13.40562   -8.69438    8.48620
       O   -12.94231   -8.71616    9.33651
      H1   -12.40520   -9.52285    9.30239
       H   -16.72112  -10.65468   12.77814
       O   -16.51026  -10.65057   13.73038
      H1   -17.26221  -10.21326   14.13250
       H    -9.76316   -8.31276   14.45966
       O   -10.26734   -9.04182   14.06930
      H1   -10.60387   -8.68868   13.23716
       H   -15.20726   -7.50008   13.03143
       O   -14.90016   -7.31270   12.14349
      H1   -13.99008   -7.58475   12.21992
       H   -14.88829   -5.36549    9.83525
       O   -15.60623   -5.20489   10.47934
      H1   -15.53365   -5.98906   11.05825
       H   -18.46005   -9.31920   10.92798
       O   -18.97388   -9.51578   11.73583
      H1   -18.75167  -10.39714   11.99080
       H   -14.69866   -9.20619   11.79352
       O   -14.28984   -9.97593   11.34674
      H1   -13.74667   -9.58454   10.65202
       H   -12.64651  -13.79932    7.92226
       O   -11.81288  -13.77253    8.40264
      H1   -11.77203  -12.87532    8.73883
       H   -15.30558  -10.27009   15.13180
       O   -15.07192  -10.11516   16.02880
      H1   -14.12742   -9.97354   15.95643
       H   -13.30637  -10.64582   12.58763
       O   -12.71688  -10.95835   13.28543
      H1   -12.66988  -10.23606   13.92315
       H   -14.68523   -8.27771   15.33092
       O   -14.99639   -7.44866   14.94155
      H1   -15.73708   -7.21177   15.53037

