60
frame 2 | Written by MDAnalysis XYZWriter (release 2.4.3)
       H    10.88715    9.47287    4.34870
       O    10.75121   10.36616    4.72219
      H1    10.05893   10.23741    5.38368
       H     7.40670    7.92874    3.64678
       O     8.06191    7.67134    2.98842
      H1     7.56813    7.18792    2.32864
       H     8.68166    6.40385    4.30432
       O     9.08144    6.17097    5.16106
      H1     9.02042    5.21076    5.12946
       H     5.47339    6.14182    9.28605
       O     4.73543    6.79363    9.12430
      H1     4.37668    6.92060   10.03623
       H     5.54015   13.46898    6.27729
       O     5.73789   12.73644    6.89982
      H1     4.93574   12.66176    7.46369
       H     7.56031   11.20453    4.68813
       O     6.68429   11.26561    4.28452
      H1     6.82553   10.92052    3.36877
       H     8.85274   11.72081    2.67507
       O     9.80503   11.88395    2.72449
      H1    10.13350   11.27354    3.36865
       H     6.51446    9.33602    4.58544
       O     6.48493    8.51817    5.06338
      H1     7.05623    8.61680    5.83109
       H     3.72443   11.97180    3.92021
       O     3.72168   11.82841    4.88170
      H1     4.64158   11.97569    5.08395
       H    10.96518    9.91562    9.05794
       O    10.29514   10.17709    9.70108
      H1     9.63690   10.60505    9.13259
       H    10.24115    7.44092    3.62941
       O    11.10892    7.80380    3.38663
      H1    11.70992    7.43050    4.04862
       H     8.30025   10.27931    7.19415
       O     8.59704    9.69672    6.46725
      H1     9.07319    9.04790    6.98858
       H     9.85141    7.30744    7.23315
       O    10.19360    7.89174    7.92692
      H1     9.59485    7.79655    8.68246
       H     7.28107   12.78524    6.03249
       O     8.18104   13.09391    5.91784
      H1     8.16800   13.97295    6.25448
       H     7.13470   11.89753    8.37818
       O     8.06111   11.71586    8.23795
      H1     8.22799   12.14922    7.39131
       H     7.84534    5.73438    9.29532
       O     7.07575    5.17438    9.10922
      H1     7.41224    4.46121    8.54071
       H     4.97105    9.24685    9.45169
       O     5.66898    9.87533    9.68796
      H1     5.47431   10.22528   10.55289
       H     2.65485    8.63456    4.64595
       O     2.13908    9.35784    5.08435
      H1     2.45789   10.14649    4.66613
       H     8.82699    8.99952   10.21177
       O     8.09939    8.57146    9.77434
      H1     7.37436    9.19987    9.72134
       H     6.49104    4.21231    3.95066
       O     5.69438    4.63518    4.24419
      H1     5.85757    5.60735    4.08465

