60
frame 2 | Written by MDAnalysis XYZWriter (release 2.4.3)
       H   -13.53169   -2.66647   -5.01606
       O   -13.80218   -2.91885   -5.89211
      H1   -14.58716   -2.41755   -6.08838
       H   -14.07582   -5.80905   -2.66395
       O   -13.57467   -5.00669   -2.72468
      H1   -14.24437   -4.34634   -2.91374
       H   -19.16526    1.99428   -5.15355
       O   -18.50244    2.41625   -5.73109
      H1   -18.19331    1.69056   -6.29269
       H   -16.40279   -0.98150   -1.80821
       O   -16.33505   -0.67303   -2.73061
      H1   -16.72661    0.21218   -2.69325
       H   -15.13373    2.28527   -4.56892
       O   -14.35124    2.62381   -5.00457
      H1   -13.96618    1.88428   -5.51564
       H   -16.89108   -1.42120    0.69071
       O   -17.62589   -1.29782    1.29231
      H1   -18.00878   -2.17174    1.34219
       H   -17.40462    2.41954    1.05055
       O   -18.00385    2.49453    0.27758
      H1   -18.21975    1.62568   -0.04326
       H   -17.50422    2.43276   -2.89158
       O   -17.21500    1.73105   -3.47944
      H1   -17.70348    1.88725   -4.29297
       H   -13.97259    1.47400   -0.42050
       O   -13.64682    1.51006    0.46949
      H1   -13.47238    2.45870    0.63638
       H   -13.43747   -0.98852   -3.33077
       O   -13.35436   -1.94900   -3.36982
      H1   -12.40979   -2.09209   -3.56160
       H   -18.76130   -5.70235   -4.41278
       O   -18.36780   -5.27379   -3.65108
      H1   -17.49861   -4.98652   -4.00182
       H   -14.75276    0.06933   -5.08809
       O   -14.94892   -0.46041   -5.87807
      H1   -14.18861   -0.29788   -6.45508
       H   -15.75819   -3.31741   -0.12353
       O   -15.76875   -2.34885   -0.31187
      H1   -14.89290   -2.02162   -0.02094
       H   -15.71808   -3.92176   -4.14846
       O   -15.90866   -3.57705   -3.25945
      H1   -16.00106   -2.60948   -3.38185
       H   -16.15834   -1.85284   -6.81774
       O   -16.31175   -2.62096   -7.35803
      H1   -15.95430   -2.43309   -8.24380
       H   -17.22201    3.45790   -0.95721
       O   -16.68551    3.83901   -1.65573
      H1   -16.23383    4.56742   -1.22701
       H   -13.22946   -1.48465   -1.34287
       O   -13.24778   -1.75257   -0.43458
      H1   -12.71833   -1.07988    0.03477
       H   -16.87321    1.69566   -7.77077
       O   -17.15139    0.86620   -7.37746
      H1   -16.40560    0.56525   -6.84010
       H   -13.79374    1.37213   -2.43333
       O   -13.90599    0.40926   -2.34227
      H1   -14.83584    0.20449   -2.55498
       H   -17.67111   -1.39717   -4.14884
       O   -17.81511   -2.06323   -4.78736
      H1   -17.97350   -2.87529   -4.26083

