60
frame 2 | Written by MDAnalysis XYZWriter (release 2.4.3)
       H     2.10962  -10.19724    4.15236
       O     2.08207   -9.74464    3.28106
      H1     2.56164  -10.33940    2.69546
       H    -0.83435   -5.35137    5.64019
       O    -0.76831   -5.84348    6.45961
      H1    -0.20047   -6.62724    6.25964
       H    -0.00787   -4.50607    2.89135
       O    -0.29675   -5.15616    3.56948
      H1     0.36531   -5.82164    3.50524
       H    -2.09567   -9.32113    3.32356
       O    -2.73631   -9.22418    4.05267
      H1    -2.78753   -8.29289    4.09340
       H     1.05198   -3.17994    8.02765
       O     0.10888   -3.46620    8.10181
      H1     0.12173   -4.25763    7.51953
       H     2.69848  -10.95934    8.55070
       O     3.20367  -11.63938    8.08793
      H1     2.56812  -12.36504    7.92545
       H     1.94621   -7.79690    3.34032
       O     1.34595   -7.20743    3.81190
      H1     0.50362   -7.56756    3.47771
       H    -3.16246   -9.59635    5.78477
       O    -2.87462   -9.74665    6.68689
      H1    -3.30711  -10.59330    6.88555
       H     2.57786   -4.89433    8.66450
       O     3.33945   -4.64296    8.16471
      H1     4.09007   -5.08122    8.58855
       H    -2.48308   -6.09329    7.03668
       O    -3.36174   -6.22014    7.42513
      H1    -3.14620   -6.28596    8.36425
       H     0.34105   -6.24313    8.90171
       O     1.28990   -6.20171    9.00445
      H1     1.61589   -7.07445    8.74112
       H    -1.93086   -6.01709    3.94935
       O    -2.77666   -6.46430    3.95752
      H1    -3.34035   -5.81010    4.42705
       H     0.44122   -8.90466    6.08888
       O     0.77572   -7.99265    6.26628
      H1     1.13781   -7.69828    5.41975
       H    -0.61809  -11.40006    3.85199
       O    -1.00341  -12.26358    3.55524
      H1    -1.39158  -12.76105    4.29298
       H     1.84461   -9.78997   10.77162
       O     1.94718   -9.30920    9.91711
      H1     2.92340   -9.20096    9.97804
       H     2.72892  -12.27849    5.56606
       O     2.95109  -11.34101    5.53168
      H1     3.05790  -11.19628    6.47739
       H    -0.55833   -8.40390    1.90110
       O    -0.45962   -9.04165    2.64680
      H1     0.36990   -9.45341    2.41502
       H     2.53448   -8.38104    6.91413
       O     3.36268   -8.72305    7.24838
      H1     3.99820   -8.01159    7.10018
       H    -1.03294  -10.30215    5.51882
       O    -0.06839  -10.49989    5.54828
      H1    -0.05322  -11.20610    6.18601
       H    -1.59031   -9.45076    8.14161
       O    -1.15944   -9.74482    8.97206
      H1    -0.22142   -9.67678    8.73668

