60
frame 2 | Written by MDAnalysis XYZWriter (release 2.4.3)
       H    16.44984   -0.31559  -10.39661
       O    16.49392    0.59447  -10.14342
      H1    15.69454    0.80338   -9.63817
       H    17.88383   -0.19765  -16.11621
       O    18.67509    0.23401  -15.77905
      H1    19.40482   -0.13169  -16.30497
       H    14.01411   -2.76170  -15.78688
       O    14.70434   -3.23788  -16.26283
      H1    14.23132   -3.64030  -16.98687
       H    19.13995   -3.13479  -17.19523
       O    18.29547   -3.29449  -16.72979
      H1    17.75557   -2.52941  -16.91265
       H    15.62289   -3.33586  -14.53177
       O    16.04599   -3.46436  -13.67169
      H1    15.34037   -3.77938  -13.13227
       H    17.30406   -9.00966  -13.77317
       O    17.04144   -8.22646  -14.26187
      H1    17.35186   -7.48931  -13.72789
       H    12.87889   -5.58848  -14.43898
       O    12.18028   -5.73337  -15.11125
      H1    11.39110   -5.39205  -14.68500
       H    14.20404   -6.22653  -12.71383
       O    13.83793   -5.34544  -12.88696
      H1    14.00529   -4.89287  -12.04364
       H    14.05029   -2.53700  -11.45562
       O    14.60312   -3.28161  -11.18964
      H1    15.50011   -2.93200  -11.08323
       H    17.89224   -4.36122  -14.06880
       O    18.78215   -4.66334  -14.30181
      H1    18.96056   -4.13983  -15.08624
       H    16.69651   -1.42248  -18.15220
       O    16.39845   -1.22339  -17.25490
      H1    15.77596   -1.93298  -17.07629
       H    13.83483   -0.26738  -14.92550
       O    13.39348   -1.13241  -14.93083
      H1    13.30231   -1.38237  -14.02364
       H    16.39964    1.11409  -12.05029
       O    16.36111    1.58645  -12.87764
      H1    16.44441    0.90039  -13.57269
       H    17.04936   -6.02905  -11.70621
       O    17.62162   -6.44611  -12.38413
      H1    18.31070   -6.85353  -11.81200
       H    17.42073   -1.75867  -11.91529
       O    17.02116   -1.86392  -11.04750
      H1    17.73203   -2.06497  -10.50140
       H    18.35571   -0.77084  -14.27003
       O    18.13128   -1.38008  -13.55133
      H1    17.70003   -2.09692  -14.03715
       H    15.50912   -7.15378   -9.80912
       O    15.73199   -6.21812   -9.76530
      H1    14.92791   -5.78753   -9.40676
       H    15.02061   -8.33005  -11.88645
       O    14.81046   -8.06492  -12.78097
      H1    15.61300   -8.11152  -13.33327
       H    14.40230   -3.76560   -9.57150
       O    14.40518   -4.14411   -8.66440
      H1    15.36814   -4.21073   -8.48241
       H    15.39216    1.68504  -15.55348
       O    15.45270    0.74525  -15.27881
      H1    15.89996    0.35977  -16.02940

