60
frame 2 | Written by MDAnalysis XYZWriter (release 2.4.3)
       H    15.84517   13.68820    7.99606
       O    15.97259   13.04390    7.28979
      H1    16.62791   12.43929    7.66869
       H    10.88715    9.47287    4.34870
       O    10.75121   10.36616    4.72219
      H1    10.05893   10.23741    5.38368
       H    14.62156   13.64037   10.74182
       O    15.17208   12.83411   10.75770
      H1    14.64406   12.19644   11.22230
       H    17.98262   13.27211    5.08102
       O    17.14224   12.86124    4.89795
      H1    16.76670   12.85068    5.77417
       H    10.81132   17.16455    7.62750
       O    10.32089   16.35918    7.38196
      H1    10.92294   15.87554    6.80054
       H    14.99991   16.06738    7.86554
       O    15.32062   15.57174    8.63194
      H1    14.65389   15.77563    9.28169
       H    10.96518    9.91562    9.05794
       O    10.29514   10.17709    9.70108
      H1     9.63690   10.60505    9.13259
       H    14.13738   12.22890    4.60082
       O    13.63644   11.91491    3.82027
      H1    13.21455   11.08317    4.12830
       H    14.81135   17.49104    6.46485
       O    14.39288   16.65324    6.22478
      H1    13.43668   16.85585    6.26625
       H    13.30334    9.48760    7.81098
       O    12.81806   10.00403    8.42576
      H1    13.26768    9.80461    9.28047
       H    11.45316   14.25873    5.12814
       O    11.73761   14.45020    6.01966
      H1    12.28182   13.71609    6.26292
       H    10.64548   13.40841    3.10622
       O    11.46339   13.93632    3.27605
      H1    12.20272   13.31926    3.14917
       H    15.13219    8.25559    6.74737
       O    14.42099    8.73269    6.23928
      H1    14.90795    9.00428    5.43606
       H    13.16590   11.42049    6.94382
       O    13.42905   12.30514    6.62772
      H1    14.27331   12.47891    7.05669
       H    15.92056   14.16362    4.70860
       O    15.15787   14.53818    4.21982
      H1    14.72500   15.10836    4.85151
       H    17.60844   11.41260    9.13995
       O    16.80585   11.14603    9.57879
      H1    16.43747   12.00438    9.84006
       H    11.02151   11.52710   12.12115
       O    11.40393   11.99944   11.36911
      H1    11.13224   11.44228   10.62723
       H    10.82971   15.44096    8.86948
       O    11.20830   15.12271    9.69923
      H1    10.46316   15.01973   10.27714
       H    15.21944   11.83624    2.20532
       O    16.15202   11.96051    2.43491
      H1    16.17140   12.52557    3.19856
       H    16.59001    9.36935    4.55797
       O    15.79139    9.40832    3.98801
      H1    15.78100   10.27276    3.55611

