60
frame 0 | Written by MDAnalysis XYZWriter (release 2.4.3)
       H   -13.57745   -0.12097   -5.87499
       O   -13.88767   -1.02690   -6.05371
      H1   -14.34515   -1.38612   -5.27915
       H   -10.75874   -3.91868   -4.13644
       O   -11.53584   -3.36415   -4.28746
      H1   -11.62389   -3.37891   -5.27273
       H   -15.90643    3.60815   -7.35334
       O   -16.03381    2.67106   -7.58103
      H1   -15.82078    2.24680   -6.75056
       H   -13.19818    1.23481   -8.81223
       O   -14.02805    1.04937   -9.27982
      H1   -13.95252    1.47390  -10.16723
       H   -12.55955   -2.17173   -6.63665
       O   -11.93934   -2.80984   -6.98437
      H1   -12.46082   -3.57572   -7.22457
       H   -13.11893    0.25042   -2.46431
       O   -13.80534    0.51114   -1.83545
      H1   -13.78053    1.46741   -1.82425
       H   -12.83210    2.16876   -4.73992
       O   -12.46010    1.50145   -5.29338
      H1   -11.61614    1.30588   -4.89557
       H   -14.66160   -3.69791   -7.38404
       O   -14.12629   -3.84340   -8.19307
      H1   -14.08450   -2.97329   -8.61127
       H   -12.18597    1.98471   -7.19176
       O   -11.76326    1.79783   -8.02927
      H1   -11.34155    0.94454   -7.87087
       H   -13.23700   -1.64064  -10.74250
       O   -13.00844   -1.71538   -9.81656
      H1   -13.11675   -0.80994   -9.48480
       H   -10.82786   -1.70900   -4.85257
       O   -10.23938   -1.07539   -5.35986
      H1   -10.00171   -0.45615   -4.68254
       H    -9.44195   -0.44871   -8.63790
       O    -9.62628   -0.00206   -7.78856
      H1   -10.01620   -0.66840   -7.21430
       H   -15.29852   -0.99525   -7.47853
       O   -15.90647   -0.32912   -7.84632
      H1   -15.36867    0.42423   -8.09105
       H   -15.19609   -1.44032   -3.09343
       O   -14.81628   -2.23421   -3.46671
      H1   -14.35864   -2.62885   -2.71547
       H   -16.90913   -3.10282   -6.85129
       O   -16.11876   -3.15799   -6.28042
      H1   -16.44753   -2.90120   -5.41610
       H   -12.20650   -1.59259   -3.24813
       O   -11.70016   -0.77451   -3.11981
      H1   -10.94889   -1.06580   -2.61730
       H   -15.78669    0.61816   -2.05761
       O   -16.33359    0.27074   -2.78166
      H1   -17.25796    0.41653   -2.41726
       H   -13.97093    3.16710   -8.36697
       O   -13.55789    4.00370   -8.23249
      H1   -13.99052    4.60269   -8.87175
       H   -15.64752    3.21715   -4.63884
       O   -15.28302    2.33701   -4.79792
      H1   -15.80181    1.77325   -4.19534
       H   -17.32572   -0.57136   -4.89320
       O   -17.72565   -1.41160   -4.69501
      H1   -17.51677   -1.64400   -3.75737

