60
frame 2 | Written by MDAnalysis XYZWriter (release 2.4.3)
       H    -5.89036    9.95809   14.96267
       O    -5.53383   10.84602   14.86596
      H1    -5.10079   10.84261   13.99885
       H   -11.34326    9.68930   17.80046
       O   -10.58420    9.63012   17.23059
      H1   -10.39158   10.53253   16.93484
       H    -6.42778    7.09155   18.36773
       O    -7.27989    6.62929   18.22311
      H1    -7.02068    5.69970   18.30678
       H    -8.88947   12.78679   17.60112
       O    -8.45209   13.32324   18.28572
      H1    -9.02802   13.18131   19.04951
       H    -5.97961   10.92612   18.13416
       O    -6.78670   10.61537   18.58351
      H1    -7.49339   11.15109   18.21121
       H    -7.48767   16.24904   17.88185
       O    -6.55962   16.00467   17.74664
      H1    -6.08922   16.52414   18.42742
       H    -3.43217    8.92945   18.21747
       O    -2.67158    9.45219   17.99755
      H1    -3.00588   10.27692   17.60216
       H    -3.74510    6.27188   16.71170
       O    -4.44589    6.84064   16.37289
      H1    -4.95107    6.29236   15.73687
       H    -5.46129   14.53111   18.26284
       O    -5.40717   13.63840   18.63809
      H1    -6.34457   13.52635   18.85296
       H    -3.86713   14.20623   15.04725
       O    -2.95043   14.52086   15.14297
      H1    -2.95831   15.22537   15.76883
       H    -7.38745   13.41350   14.78278
       O    -7.66784   12.51516   14.97466
      H1    -6.90167   11.94111   14.88282
       H    -0.73979    9.96232   17.98819
       O    -0.18605   10.76024   17.99965
      H1     0.58550   10.56585   17.43053
       H    -9.32466   14.60250   17.51054
       O    -9.47233   15.50662   17.27355
      H1    -9.94607   15.41491   16.46124
       H    -1.28266   12.38334   17.44231
       O    -1.36140   13.36350   17.29042
      H1    -1.84291   13.47922   16.46457
       H    -9.23651    7.07046   15.77744
       O    -8.65717    6.33304   16.02374
      H1    -8.38594    6.51105   16.93322
       H    -3.07939    7.90628   15.20457
       O    -2.71782    7.78453   14.34751
      H1    -2.80777    6.80943   14.25388
       H    -7.01782    7.68309   15.82705
       O    -6.43626    8.36548   15.43150
      H1    -5.66430    8.30269   15.97297
       H    -4.79326   12.19571   17.51095
       O    -4.64734   11.22932   17.39604
      H1    -4.86811   11.10334   16.44489
       H    -9.25717   12.25850   15.72210
       O   -10.11203   12.13033   16.17100
      H1   -10.76087   12.51625   15.57045
       H    -6.76466   15.29016   15.63876
       O    -6.93889   15.01560   14.74076
      H1    -7.60971   15.67716   14.43698

