60
frame 2 | Written by MDAnalysis XYZWriter (release 2.4.3)
       H     9.69872   -1.22398  -18.51572
       O     9.81089   -1.69501  -17.67754
      H1    10.43811   -1.13689  -17.19234
       H    11.28711    1.85548  -12.59602
       O    11.82076    2.61668  -12.82537
      H1    12.60431    2.62515  -12.28118
       H    14.01411   -2.76170  -15.78688
       O    14.70434   -3.23788  -16.26283
      H1    14.23132   -3.64030  -16.98687
       H    12.17878    1.17976  -17.95431
       O    12.62999    1.97425  -18.20609
      H1    12.53064    2.57703  -17.45862
       H    10.83948    0.78786  -15.98937
       O    11.31093    0.04248  -16.39188
      H1    11.73340   -0.42512  -15.68563
       H     7.43029    0.86292  -17.81778
       O     6.72188    0.18341  -17.75600
      H1     7.16297   -0.52730  -17.23699
       H     8.46777    3.82613  -17.82074
       O     8.57013    2.87370  -17.89355
      H1     8.91016    2.69128  -18.80876
       H    14.97051    3.20214  -16.72697
       O    14.94226    3.44893  -15.79910
      H1    15.77048    3.91753  -15.68759
       H     8.92204   -2.03363  -13.15802
       O     8.57393   -1.19019  -13.43546
      H1     7.84985   -1.05209  -12.85894
       H    16.69651   -1.42248  -18.15220
       O    16.39845   -1.22339  -17.25490
      H1    15.77596   -1.93298  -17.07629
       H    13.83483   -0.26738  -14.92550
       O    13.39348   -1.13241  -14.93083
      H1    13.30231   -1.38237  -14.02364
       H    12.14061   -4.87387  -16.70480
       O    12.59291   -4.71346  -17.56050
      H1    11.86951   -4.41905  -18.16815
       H     7.42114    3.03011  -14.36718
       O     8.04671    2.41952  -13.93870
      H1     7.66055    2.26940  -13.04857
       H     8.14587   -1.66949  -16.59078
       O     7.39291   -1.71436  -15.99912
      H1     7.77565   -1.60839  -15.12254
       H     9.86395    2.95737  -16.61834
       O    10.29735    2.76385  -15.78516
      H1     9.60831    2.76149  -15.12427
       H    11.97024   -1.69724  -11.14106
       O    12.62936   -1.01200  -11.34616
      H1    12.96409   -0.70299  -10.46441
       H     9.83234   -0.17054  -12.60845
       O    10.34426    0.43628  -12.03113
      H1    11.16576   -0.01441  -11.83701
       H    13.23796    3.95731  -16.01499
       O    12.50603    4.32640  -16.58396
      H1    11.76453    3.77704  -16.22292
       H     4.55135    0.31414  -15.58468
       O     5.16660    1.04136  -15.52334
      H1     6.02988    0.65421  -15.73379
       H    15.39216    1.68504  -15.55348
       O    15.45270    0.74525  -15.27881
      H1    15.89996    0.35977  -16.02940

