60
frame 2 | Written by MDAnalysis XYZWriter (release 2.4.3)
       H    14.62156   13.64037   10.74182
       O    15.17208   12.83411   10.75770
      H1    14.64406   12.19644   11.22230
       H    15.75704   17.08054   16.51969
       O    15.06950   17.37903   15.90409
      H1    14.30116   17.59695   16.49936
       H    10.81132   17.16455    7.62750
       O    10.32089   16.35918    7.38196
      H1    10.92294   15.87554    6.80054
       H    14.99991   16.06738    7.86554
       O    15.32062   15.57174    8.63194
      H1    14.65389   15.77563    9.28169
       H    13.76381   15.54707   11.53646
       O    13.53533   15.92881   10.66444
      H1    12.68023   15.53400   10.48222
       H     8.93172   18.69452   10.71437
       O     9.72406   18.27250   11.07380
      H1    10.34856   18.35783   10.34008
       H    15.35351   15.19195   14.06225
       O    15.28593   15.96582   13.46355
      H1    15.39061   16.73204   14.07081
       H     9.50374   17.87163   14.01743
       O    10.46236   17.83189   13.89968
      H1    10.60733   17.98596   12.96952
       H    12.35181   17.20626   16.66764
       O    12.26974   18.08109   16.26550
      H1    11.81663   17.90456   15.43933
       H    14.81135   17.49104    6.46485
       O    14.39288   16.65324    6.22478
      H1    13.43668   16.85585    6.26625
       H    12.65575   18.93540   11.78488
       O    12.64402   18.01786   12.08995
      H1    12.95123   17.48031   11.34269
       H    12.03467   16.36558   13.49743
       O    12.43473   15.49837   13.49744
      H1    13.38787   15.71212   13.59730
       H     8.50969   15.49060   12.32507
       O     8.89145   15.61518   11.43198
      H1     9.09244   16.57538   11.51462
       H    11.66505   18.64270    6.34361
       O    11.96369   17.91156    5.77989
      H1    11.25066   17.27185    5.90910
       H    14.28696   18.64256   12.97697
       O    15.13348   19.05202   13.16768
      H1    15.31429   18.74913   14.05169
       H    10.34675   13.64735   12.49190
       O     9.96364   13.47772   13.37411
      H1    10.28498   14.20434   13.94092
       H    17.41137   16.41538   12.11269
       O    17.58610   17.18392   12.68127
      H1    16.69054   17.49882   12.90903
       H    10.82971   15.44096    8.86948
       O    11.20830   15.12271    9.69923
      H1    10.46316   15.01973   10.27714
       H    18.24953   16.91116    7.45395
       O    17.77847   16.07307    7.48882
      H1    16.94230   16.39182    7.83904
       H    17.95452   14.09252   10.28834
       O    17.65611   14.16997   11.20281
      H1    16.80467   13.70785   11.21662

