60
frame 0 | Written by MDAnalysis XYZWriter (release 2.4.3)
       H    -3.73669   18.70041  -11.21003
       O    -3.71608   18.16563  -10.42805
      H1    -4.20611   18.74406   -9.83645
       H    -7.43611   14.73585  -10.39105
       O    -6.51095   14.72331  -10.66990
      H1    -6.11188   15.13221   -9.86661
       H    -7.24303   17.63024  -15.28960
       O    -7.33341   18.11550  -14.46678
      H1    -8.28106   18.36916  -14.38400
       H    -9.57267   13.47798  -13.91021
       O    -9.48017   14.41593  -14.12879
      H1    -8.57260   14.61283  -13.80047
       H    -6.56803   15.38365  -12.40688
       O    -7.02887   15.45494  -13.28311
      H1    -7.26343   16.41035  -13.36490
       H    -6.88526   18.61178  -10.71069
       O    -7.03190   18.90343  -11.63439
      H1    -6.55624   18.29538  -12.24134
       H    -6.34199   16.34935  -16.69192
       O    -7.16892   16.80445  -16.91227
      H1    -7.80736   16.13437  -17.11595
       H    -6.77885   18.01252   -8.28379
       O    -6.03682   18.31584   -8.79163
      H1    -5.51656   17.52400   -8.88038
       H   -11.87136   15.46241   -9.21537
       O   -11.10381   15.07817   -8.73782
      H1   -10.35369   15.37646   -9.29271
       H    -8.93833   18.36938   -8.20950
       O    -8.53679   17.52206   -7.91601
      H1    -8.95887   17.35963   -7.05305
       H   -10.17038   18.33088  -10.82115
       O   -10.62579   17.85504  -11.54570
      H1   -11.45219   18.37550  -11.56130
       H    -2.27663   18.48797   -6.71799
       O    -2.37866   19.28487   -7.22351
      H1    -3.17669   19.20025   -7.75067
       H   -10.26091   18.24043  -13.31028
       O   -10.17434   18.90447  -14.00611
      H1   -10.54046   18.44454  -14.76981
       H    -5.30235   15.70005  -14.67837
       O    -4.69192   15.94052  -15.39597
      H1    -4.09771   16.59707  -15.02089
       H    -3.75197   19.35880  -16.14017
       O    -3.22198   18.71792  -15.65808
      H1    -2.44023   18.64209  -16.22051
       H    -3.06506   16.54943  -11.52100
       O    -3.02358   15.87564  -12.21828
      H1    -2.96505   15.04284  -11.72819
       H    -4.29512   15.35430   -8.99853
       O    -4.90808   15.65770   -8.32219
      H1    -4.98204   14.87783   -7.75089
       H    -8.98434   16.28274  -10.83088
       O    -8.89011   15.73498  -10.03527
      H1    -8.82115   16.36424   -9.30134
       H   -11.14960   18.99833  -16.69083
       O   -11.12643   18.10418  -16.31780
      H1   -10.40918   17.75289  -16.84285
       H   -11.18392   16.05727  -12.01460
       O   -11.44106   15.12881  -12.13685
      H1   -10.98858   14.88638  -12.93225

