60
frame 2 | Written by MDAnalysis XYZWriter (release 2.4.3)
       H   -14.49739   -5.80749   15.02852
       O   -14.36574   -4.86480   14.95387
      H1   -14.77465   -4.60242   14.09669
       H   -14.15771   -1.41739   15.74778
       O   -13.29230   -0.98843   15.51178
      H1   -12.60351   -1.67722   15.45789
       H   -12.21854   -8.10540   10.92197
       O   -12.14766   -7.68866   11.79326
      H1   -11.92679   -6.78303   11.55419
       H   -13.87106   -3.50446   11.75733
       O   -13.08771   -3.23528   11.30039
      H1   -13.39846   -3.15156   10.36687
       H   -12.90424   -1.79559   12.22633
       O   -12.96000   -0.97247   12.74739
      H1   -12.87554   -1.30067   13.64068
       H   -16.39234   -7.98676   17.91839
       O   -16.01275   -7.15981   17.60470
      H1   -15.06641   -7.31211   17.76222
       H   -15.40597   -1.01093   17.27269
       O   -15.56510   -1.74767   16.67052
      H1   -15.05352   -2.48637   16.94383
       H   -10.64251   -2.17461   14.33116
       O   -11.21034   -2.58233   14.98051
      H1   -11.37989   -3.43620   14.53557
       H   -10.98233   -4.69140   12.60609
       O   -10.73203   -4.61005   11.66803
      H1   -11.50968   -4.14050   11.31525
       H   -15.81467   -2.95797   12.66720
       O   -15.29371   -3.73950   12.77178
      H1   -15.36544   -4.19109   11.89425
       H   -15.20726   -7.50008   13.03143
       O   -14.90016   -7.31270   12.14349
      H1   -13.99008   -7.58475   12.21992
       H   -14.88829   -5.36549    9.83525
       O   -15.60623   -5.20489   10.47934
      H1   -15.53365   -5.98906   11.05825
       H   -17.33618   -1.54953   15.60564
       O   -17.82566   -1.43745   14.77882
      H1   -17.09094   -1.12674   14.21024
       H   -14.07785   -4.07622   16.49086
       O   -13.88570   -3.71663   17.34298
      H1   -13.31191   -2.97362   17.16763
       H   -17.74825   -6.43672   16.09414
       O   -17.56126   -6.33073   15.14212
      H1   -18.28194   -6.86789   14.76080
       H   -14.89292   -0.95413   13.29738
       O   -15.80287   -0.93071   12.96780
      H1   -15.64863   -1.03077   12.02278
       H   -18.30363   -3.43477   12.22587
       O   -18.40281   -3.04640   11.34547
      H1   -19.36049   -2.79666   11.28265
       H   -12.64970   -5.20365   14.63770
       O   -11.76407   -5.11545   14.23029
      H1   -11.30399   -5.83600   14.67504
       H   -18.60501   -3.20528   14.32745
       O   -18.85048   -4.00785   13.82380
      H1   -18.08491   -4.61333   13.96001
       H   -14.68523   -8.27771   15.33092
       O   -14.99639   -7.44866   14.94155
      H1   -15.73708   -7.21177   15.53037

