60
frame 2 | Written by MDAnalysis XYZWriter (release 2.4.3)
       H   -11.19340  -14.86969   -7.24218
       O   -11.28891  -14.99793   -8.20625
      H1   -12.22568  -15.15468   -8.30802
       H   -10.80967  -13.02320   -5.57009
       O   -11.23912  -12.17091   -5.70928
      H1   -12.14337  -12.40494   -5.97949
       H   -12.18730  -17.81908   -5.07419
       O   -11.59611  -18.51360   -5.37273
      H1   -12.18101  -19.10661   -5.87078
       H    -7.02837  -17.05228   -8.76145
       O    -7.39907  -17.86935   -8.43539
      H1    -7.11418  -18.49937   -9.09166
       H   -11.72589  -15.30181   -3.15065
       O   -10.79535  -15.29491   -2.88654
      H1   -10.68577  -14.42615   -2.51546
       H    -9.55184  -16.18922  -11.76063
       O    -9.78696  -15.56985  -12.46637
      H1    -9.09692  -14.90296  -12.39175
       H   -16.50510  -16.63836   -8.52653
       O   -16.14501  -16.52901   -9.42958
      H1   -15.36850  -15.93704   -9.32286
       H   -11.36516  -17.90962   -6.91333
       O   -11.61137  -17.57889   -7.75879
      H1   -11.39315  -16.63070   -7.77881
       H    -9.11596  -17.48427   -9.55921
       O    -9.68980  -17.54333  -10.32825
      H1   -10.56157  -17.36301   -9.98865
       H    -7.16392  -15.50698   -7.03664
       O    -7.41505  -14.72626   -6.57728
      H1    -7.62501  -14.08304   -7.27326
       H   -11.05702  -13.92477   -9.51676
       O   -11.02417  -13.18894  -10.13043
      H1   -11.48362  -13.45619  -10.90829
       H   -15.60014  -15.42608   -6.01108
       O   -15.74793  -16.36243   -6.29439
      H1   -16.70665  -16.40569   -6.31888
       H    -7.47885  -18.32229   -6.90188
       O    -7.52142  -18.67644   -6.00188
      H1    -6.90608  -18.08779   -5.49434
       H   -10.12857  -15.24067   -4.80266
       O   -10.18492  -15.03012   -5.74662
      H1    -9.27480  -15.06324   -6.09592
       H   -14.17231  -15.01157   -2.90939
       O   -13.91582  -14.14143   -3.18379
      H1   -14.22570  -13.62560   -2.40732
       H   -13.02235  -17.91426  -10.93839
       O   -12.40891  -17.53178  -10.32448
      H1   -12.49529  -18.08158   -9.54204
       H   -13.50202  -17.04599   -1.58463
       O   -13.50127  -16.81860   -2.53601
      H1   -13.85901  -17.63728   -2.89159
       H   -13.59440  -14.62339   -9.54644
       O   -13.58153  -15.46187   -9.08824
      H1   -13.30328  -16.11217   -9.75143
       H   -14.34717  -19.17193   -4.74026
       O   -14.64711  -18.36041   -4.30184
      H1   -14.61510  -17.68515   -4.96812
       H    -9.51281  -18.22392   -1.53627
       O    -9.93523  -17.43611   -1.20350
      H1   -10.45871  -17.15870   -1.92132

