60
frame 2 | Written by MDAnalysis XYZWriter (release 2.4.3)
       H    12.97815    4.62671   -6.81435
       O    12.15957    4.73535   -7.21709
      H1    11.53023    4.20127   -6.69507
       H     7.25976    8.87963   -4.06320
       O     7.67487    8.02383   -3.92921
      H1     8.53116    8.24918   -3.55586
       H     7.51369    7.93024   -0.76659
       O     7.22467    7.20093   -1.40279
      H1     7.27413    7.68219   -2.25406
       H    10.64572    2.68672   -4.82999
       O    10.34667    2.94867   -5.71310
      H1    10.41815    2.17101   -6.25464
       H     8.07047    1.75430   -8.07775
       O     7.62650    2.53082   -7.66246
      H1     8.34353    3.14471   -7.46228
       H    11.31721    8.62654   -7.55512
       O    11.75711    8.06137   -6.92461
      H1    11.00528    7.76641   -6.38102
       H     7.76434    3.18102   -3.04904
       O     7.83698    4.03628   -3.51166
      H1     7.20422    3.96578   -4.23923
       H     8.06711   11.36805   -5.98990
       O     8.15952   11.03335   -6.92024
      H1     8.33194   10.07142   -6.90329
       H     5.55165    4.84985   -6.06372
       O     5.80523    4.23644   -5.35665
      H1     5.14797    4.43682   -4.66738
       H     8.51953    5.33523   -6.62225
       O     8.35603    5.48240   -7.56434
      H1     9.22634    5.60244   -7.93017
       H    11.09637    6.36298   -4.74428
       O    11.73302    6.57915   -4.05512
      H1    11.18443    7.18234   -3.50732
       H    11.18611    6.00217   -8.31113
       O    10.68072    6.26351   -9.10598
      H1    10.58768    7.24084   -9.01478
       H     5.89004    9.40203   -5.77262
       O     6.03575    9.89994   -4.96967
      H1     5.19894    9.93659   -4.50431
       H     5.71812    4.14439   -2.71504
       O     4.74874    4.16545   -2.88132
      H1     4.44568    3.35028   -2.46041
       H     8.58380    6.14343   -0.96805
       O     9.20635    5.40498   -0.83638
      H1     9.73816    5.67103   -0.09500
       H     6.42433    5.97315   -7.54273
       O     5.50977    5.77457   -7.46661
      H1     5.31733    5.20738   -8.22142
       H    10.50417    4.95637   -1.96903
       O    11.20017    4.54576   -2.48246
      H1    11.55957    5.23979   -3.05085
       H     8.56401    6.67200   -4.93626
       O     9.19976    6.00211   -4.95366
      H1     8.91671    5.39957   -4.23948
       H     8.13113    7.95245   -7.20078
       O     8.66019    8.42729   -6.56964
      H1     8.19822    8.13681   -5.77600
       H    10.64650    9.12034   -2.16051
       O    10.18010    8.30958   -2.40561
      H1     9.90247    7.97142   -1.54790

