60
frame 2 | Written by MDAnalysis XYZWriter (release 2.4.3)
       H    -5.87231  -17.75695    0.54709
       O    -5.29107  -18.52107    0.54549
      H1    -4.41134  -18.15660    0.42439
       H    -6.85636  -19.30485    2.34114
       O    -7.39643  -18.67239    2.83983
      H1    -7.98677  -18.33414    2.15103
       H   -12.18730  -17.81908   -5.07419
       O   -11.59611  -18.51360   -5.37273
      H1   -12.18101  -19.10661   -5.87078
       H    -7.37872  -12.53853   -2.77650
       O    -7.45942  -13.40985   -3.17538
      H1    -7.16262  -14.04012   -2.53484
       H   -11.72589  -15.30181   -3.15065
       O   -10.79535  -15.29491   -2.88654
      H1   -10.68577  -14.42615   -2.51546
       H   -13.51195  -14.38782    0.43329
       O   -12.54420  -14.30560    0.49779
      H1   -12.32625  -14.84490   -0.29948
       H    -5.44818  -18.94066   -4.02861
       O    -5.90251  -18.07829   -4.04316
      H1    -5.26738  -17.55127   -4.50679
       H    -8.58130  -16.43878   -1.77890
       O    -7.77272  -16.22929   -2.26988
      H1    -7.40061  -17.07283   -2.61964
       H   -11.47320  -12.53672   -1.96661
       O   -10.91916  -12.90079   -1.26569
      H1   -11.52218  -13.17702   -0.54526
       H    -4.84326  -14.62335   -1.84558
       O    -4.85129  -15.22858   -2.61065
      H1    -5.31634  -15.98903   -2.23726
       H    -4.85166  -15.05281   -4.40267
       O    -4.85293  -14.88177   -5.36764
      H1    -5.79190  -14.65508   -5.52447
       H    -8.07911  -16.54699    1.04458
       O    -7.27030  -16.25277    0.57013
      H1    -7.57915  -15.88585   -0.27693
       H    -7.47885  -18.32229   -6.90188
       O    -7.52142  -18.67644   -6.00188
      H1    -6.90608  -18.08779   -5.49434
       H   -10.12857  -15.24067   -4.80266
       O   -10.18492  -15.03012   -5.74662
      H1    -9.27480  -15.06324   -6.09592
       H   -13.50202  -17.04599   -1.58463
       O   -13.50127  -16.81860   -2.53601
      H1   -13.85901  -17.63728   -2.89159
       H    -5.73499  -15.78474    1.44886
       O    -4.98096  -15.33575    1.84880
      H1    -4.77657  -15.97879    2.57154
       H    -8.23738  -11.17099   -4.60236
       O    -8.38120  -11.78720   -5.31518
      H1    -8.57580  -12.58080   -4.82769
       H   -10.05470  -17.17304    0.68298
       O    -9.55576  -17.28487    1.50771
      H1   -10.24800  -17.25580    2.19268
       H    -9.51281  -18.22392   -1.53627
       O    -9.93523  -17.43611   -1.20350
      H1   -10.45871  -17.15870   -1.92132
       H    -8.05563  -12.03225    0.47507
       O    -8.80476  -12.64386    0.54332
      H1    -9.32738  -12.46907   -0.26666

