60
frame 2 | Written by MDAnalysis XYZWriter (release 2.4.3)
       H     1.54174    2.50491    8.30670
       O     2.07786    3.28582    8.45900
      H1     1.60297    3.97721    8.00853
       H    -0.62336    4.68897    7.49097
       O    -0.07384    4.49740    6.71787
      H1    -0.65545    3.96504    6.16218
       H     2.80491    8.20643   11.53731
       O     3.30579    8.46166   10.74172
      H1     2.61191    8.65770   10.05350
       H     5.47339    6.14182    9.28605
       O     4.73543    6.79363    9.12430
      H1     4.37668    6.92060   10.03623
       H     4.33347    6.12934   12.96505
       O     4.31068    6.16321   11.99700
      H1     3.57333    5.53462   11.84938
       H     0.97540    6.80887    9.36821
       O     0.07655    6.95707    9.72910
      H1     0.18134    6.69941   10.63955
       H    -0.53032    7.53218    5.55276
       O    -0.26732    7.29584    6.45187
      H1    -0.07380    6.35620    6.40540
       H     3.23979    6.96651    8.34009
       O     2.35682    6.96781    7.92777
      H1     2.49869    7.58905    7.20020
       H    -0.75924    2.19100   10.67242
       O    -0.14979    2.06396   11.41057
      H1    -0.21458    2.90828   11.86977
       H     1.83113    4.78838   11.62396
       O     2.52537    4.16911   11.29858
      H1     2.09117    3.80765   10.50423
       H     1.49609    8.18354   13.68363
       O     1.45779    8.02117   12.72530
      H1     1.20836    8.88383   12.36380
       H    -0.62311    7.42210   14.81785
       O    -0.07948    6.74876   15.24007
      H1     0.60333    7.21523   15.74353
       H    -1.74589    8.16018   11.01328
       O    -2.59363    7.69910   10.97327
      H1    -3.26487    8.28849   11.32585
       H    -0.54950    5.67192   12.59631
       O     0.32669    5.50960   12.20581
      H1     0.80610    6.29569   12.53533
       H    -2.40578    5.50981    7.65526
       O    -2.11405    5.49293    8.57000
      H1    -1.90890    6.43303    8.69299
       H    -3.07939    7.90628   15.20457
       O    -2.71782    7.78453   14.34751
      H1    -2.80777    6.80943   14.25388
       H    -2.67880    5.71523   11.49116
       O    -2.50262    5.05009   12.17631
      H1    -3.10887    4.33260   11.95177
       H     1.37627   10.42233    8.16860
       O     1.48977    9.87240    8.94485
      H1     1.12151    9.05501    8.65374
       H    -1.64120    3.82719    9.58988
       O    -1.98029    2.92798    9.56873
      H1    -2.60087    2.96164   10.31486
       H    -0.54095   10.52619   10.76578
       O    -0.32556    9.90166   11.46276
      H1    -1.07416   10.01303   12.05608

