60
frame 2 | Written by MDAnalysis XYZWriter (release 2.4.3)
       H    -8.72574  -16.95765    9.52137
       O    -7.97015  -16.78561   10.04258
      H1    -7.29554  -17.41896    9.73997
       H    -9.36152  -10.87849   12.11350
       O   -10.18954  -10.91187   11.61534
      H1   -10.86462  -11.02747   12.25915
       H   -11.09243  -17.51737   11.77124
       O   -10.53995  -18.29324   11.51586
      H1    -9.70746  -18.14405   11.98166
       H    -9.56870  -15.72203   15.37719
       O    -8.73230  -15.69641   14.92164
      H1    -8.51146  -14.74768   14.74858
       H    -3.46983  -15.31715    8.84941
       O    -4.39107  -15.59002    8.85805
      H1    -4.89820  -14.79222    9.13208
       H    -8.14650  -11.13543   10.72153
       O    -7.36619  -11.07471   10.15837
      H1    -6.97361  -11.92213   10.29456
       H    -3.95785  -11.69813   15.64062
       O    -3.23522  -12.30031   15.38504
      H1    -3.51752  -12.59645   14.50180
       H    -7.84094  -15.44246    8.51970
       O    -7.93775  -14.90420    7.68990
      H1    -8.43097  -15.49206    7.08663
       H    -3.79986  -17.59971   12.97135
       O    -4.08066  -16.78084   12.60998
      H1    -3.36478  -16.46865   12.01110
       H   -11.79534  -14.92250    9.59806
       O   -11.52024  -15.67918   10.11256
      H1   -11.17929  -15.31248   10.94018
       H    -8.22438  -17.23275   13.72399
       O    -8.52791  -18.04604   13.35545
      H1    -9.03326  -18.47359   14.05451
       H    -4.55570  -11.62409   12.52019
       O    -4.26677  -12.51752   12.34739
      H1    -3.33293  -12.44658   12.10683
       H    -6.12366  -14.21785   10.81249
       O    -5.90408  -13.59316   10.09663
      H1    -5.26787  -13.05755   10.53938
       H    -5.89538  -15.65358   12.54130
       O    -6.66280  -15.22826   12.16787
      H1    -7.26974  -15.94701   11.89357
       H    -7.94319  -11.64586    8.70238
       O    -8.15427  -12.06746    7.86300
      H1    -8.09081  -12.99824    8.14189
       H    -9.85425  -15.70654   12.93342
       O   -10.70082  -15.48150   12.54875
      H1   -11.01447  -14.74260   13.08082
       H    -7.03232  -14.00989   13.52121
       O    -7.27267  -13.42747   14.24642
      H1    -6.62920  -13.57836   14.95821
       H    -5.50679  -18.01218   10.96853
       O    -5.56291  -18.02778   10.01913
      H1    -5.02997  -17.31058    9.68639
       H    -2.23363  -16.65494   13.81904
       O    -1.56357  -16.63021   14.50852
      H1    -2.00862  -17.04687   15.28642
       H    -7.71744  -11.63599   13.73912
       O    -7.71740  -10.85545   13.16528
      H1    -7.93765  -10.15692   13.76371

