60
frame 2 | Written by MDAnalysis XYZWriter (release 2.4.3)
       H   -14.29426   17.33319    4.94988
       O   -14.96435   17.76063    4.36719
      H1   -15.62135   17.05037    4.25857
       H    -9.64657   18.33780    2.22516
       O   -10.10880   17.47276    2.27869
      H1   -11.04885   17.60207    2.24824
       H   -14.99344   15.68480    7.14753
       O   -15.16521   14.73003    7.13783
      H1   -15.34038   14.51766    8.06220
       H    -8.58597   17.85565    9.05168
       O    -8.91459   18.18624    8.20648
      H1    -9.17920   19.09357    8.43565
       H    -9.39433   15.80982    9.26151
       O   -10.21140   15.28384    9.19254
      H1   -10.32094   14.93807   10.05722
       H   -10.81475   17.51099    8.21789
       O   -11.53001   17.83638    7.66701
      H1   -11.49972   18.78764    7.73871
       H    -7.71684   18.58857    6.11542
       O    -7.20478   19.08659    5.43916
      H1    -7.54380   18.76049    4.58822
       H   -13.28769   14.77033    7.58168
       O   -12.43915   14.34328    7.39549
      H1   -11.96239   14.57448    8.21636
       H   -10.86102   16.38528    3.41276
       O   -11.39293   15.89882    4.10100
      H1   -12.05829   16.54089    4.40140
       H   -10.33953   16.97198    5.08743
       O    -9.65981   17.53979    5.46992
      H1    -9.97160   17.81928    6.36148
       H   -13.26057   14.66344   10.15418
       O   -12.77999   14.03929   10.71645
      H1   -12.28796   13.48545   10.07884
       H    -8.27194   14.90241    6.44556
       O    -7.89682   15.70217    6.04468
      H1    -8.67736   16.21650    5.77842
       H   -14.21903   17.14921    9.01003
       O   -13.33239   16.94196    9.36357
      H1   -12.70123   17.47995    8.94038
       H   -10.01591   13.27613    7.21234
       O   -10.00327   13.49903    6.26543
      H1   -10.76183   14.07292    6.25207
       H   -12.62188   16.98876    6.70454
       O   -13.19815   16.56856    6.01308
      H1   -13.12489   15.61514    6.20234
       H   -11.00988   14.62512   11.50239
       O   -10.13437   14.67311   11.87492
      H1   -10.00367   13.83774   12.35117
       H    -8.53641   16.50802   11.59562
       O    -8.09063   16.49330   10.75081
      H1    -7.99355   15.54116   10.56459
       H   -12.91570   17.47104   13.35390
       O   -12.04624   17.90327   13.35445
      H1   -11.74137   17.78308   12.48289
       H   -15.48745   18.15707    6.63354
       O   -15.87599   17.70091    7.37455
      H1   -16.80996   17.87724    7.30833
       H   -16.54947   18.02344   10.14266
       O   -15.67938   18.25122   10.44878
      H1   -15.42454   17.53463   11.03916

