60
frame 2 | Written by MDAnalysis XYZWriter (release 2.4.3)
       H     0.54722  -13.45247    8.85318
       O     1.38942  -13.51564    9.30406
      H1     1.65078  -14.44780    9.24872
       H     1.14400  -12.84537   10.94467
       O     0.92358  -12.71978   11.86653
      H1     0.76238  -11.77862   11.82802
       H     2.69848  -10.95934    8.55070
       O     3.20367  -11.63938    8.08793
      H1     2.56812  -12.36504    7.92545
       H    -3.46983  -15.31715    8.84941
       O    -4.39107  -15.59002    8.85805
      H1    -4.89820  -14.79222    9.13208
       H    -3.16246   -9.59635    5.78477
       O    -2.87462   -9.74665    6.68689
      H1    -3.30711  -10.59330    6.88555
       H    -2.18671  -16.31851    4.78108
       O    -1.49091  -15.86737    4.28670
      H1    -1.75543  -15.89096    3.38398
       H    -5.69463  -14.07387    5.82178
       O    -4.84892  -14.54667    5.93588
      H1    -4.84721  -14.75656    6.89238
       H    -2.50285  -18.56476    8.88738
       O    -1.93022  -17.77910    8.86014
      H1    -2.41151  -17.22915    8.23297
       H     3.65104  -14.36967    6.66553
       O     2.76935  -14.04107    6.42589
      H1     2.55496  -14.41379    5.58636
       H    -1.99687   -8.96809   11.89581
       O    -2.22234   -9.70273   11.34145
      H1    -1.56443   -9.66375   10.60060
       H     0.44122   -8.90466    6.08888
       O     0.77572   -7.99265    6.26628
      H1     1.13781   -7.69828    5.41975
       H    -0.61809  -11.40006    3.85199
       O    -1.00341  -12.26358    3.55524
      H1    -1.39158  -12.76105    4.29298
       H    -0.96625  -12.60134   11.72264
       O    -1.78320  -12.44190   11.31200
      H1    -1.93379  -11.50453   11.51577
       H    -1.20394  -11.78169    8.22266
       O    -0.67522  -12.36177    7.66683
      H1    -1.29070  -13.05465    7.37996
       H     2.72892  -12.27849    5.56606
       O     2.95109  -11.34101    5.53168
      H1     3.05790  -11.19628    6.47739
       H    -1.70126  -14.92754    9.98209
       O    -1.81842  -14.46669    9.14339
      H1    -2.14852  -13.61315    9.42652
       H    -3.18215  -13.67084    5.64425
       O    -2.23725  -13.65005    5.53431
      H1    -2.04409  -14.45499    5.08026
       H    -3.61687  -11.38309    8.60647
       O    -3.64433  -12.22348    8.12782
      H1    -4.58826  -12.31783    7.92251
       H    -1.03294  -10.30215    5.51882
       O    -0.06839  -10.49989    5.54828
      H1    -0.05322  -11.20610    6.18601
       H    -1.59031   -9.45076    8.14161
       O    -1.15944   -9.74482    8.97206
      H1    -0.22142   -9.67678    8.73668

