60
frame 2 | Written by MDAnalysis XYZWriter (release 2.4.3)
       H    14.17174   -1.29431   18.54479
       O    13.99615   -2.23356   18.37444
      H1    13.14411   -2.42114   18.78621
       H    13.15653   -0.74201   16.50305
       O    12.99800   -0.60200   15.56396
      H1    12.11634   -0.98550   15.42864
       H    16.90097   -1.93143   17.32886
       O    17.22028   -2.11120   18.22463
      H1    18.16470   -2.07794   18.15225
       H    15.47008    1.35577   17.12379
       O    15.61364    1.92807   16.36366
      H1    15.85776    1.34504   15.65591
       H    18.42808    1.56280   15.68049
       O    18.92633    1.75525   16.49447
      H1    18.43851    2.47819   16.86027
       H    16.05967   -1.78334   15.02096
       O    16.20475   -1.20592   15.80244
      H1    16.96437   -0.62622   15.53571
       H    11.84307   -6.93670   17.94495
       O    11.94350   -6.94686   18.91721
      H1    12.17719   -6.03833   19.12478
       H    17.17001   -4.92633   13.83741
       O    16.30910   -5.10609   13.38091
      H1    15.87504   -5.74243   13.98484
       H    14.09978    1.17469   18.86442
       O    14.66960    0.51055   18.48316
      H1    15.48896    0.55088   19.01309
       H    17.43953    0.21004   13.59200
       O    18.07413    0.35239   14.30649
      H1    18.61524   -0.46971   14.37311
       H    17.97022   -5.87918   17.31789
       O    18.75315   -6.41684   17.42208
      H1    18.48230   -7.32483   17.60136
       H    16.62881   -3.93913   17.91347
       O    16.41505   -4.76804   17.48315
      H1    15.79382   -5.20271   18.13121
       H    13.71605   -3.83102   16.92914
       O    13.25292   -4.28309   16.21740
      H1    13.92857   -4.94615   15.92322
       H    11.87001    2.40963   15.04055
       O    12.77179    2.04768   15.03875
      H1    12.65925    1.10718   15.17684
       H    15.38766   -6.38891   16.37892
       O    14.92531   -6.37961   15.52250
      H1    14.69134   -7.30365   15.32306
       H    15.94238   -3.78173   12.10569
       O    16.14432   -3.03002   11.50642
      H1    15.52227   -3.25190   10.80226
       H    14.61192   -3.14531   14.00491
       O    14.37111   -2.21297   13.87345
      H1    14.12781   -1.89238   14.73915
       H    16.67998    3.52460   16.82173
       O    17.31891    4.27106   16.91865
      H1    17.40513    4.61101   16.00625
       H    13.20656    0.82818   13.35940
       O    13.44410    0.18388   12.68045
      H1    13.57281   -0.63513   13.17752
       H    13.44598    3.20331   16.66995
       O    13.05501    3.63656   17.44614
      H1    13.02421    2.90063   18.06917

