60
frame 2 | Written by MDAnalysis XYZWriter (release 2.4.3)
       H    10.41850   -3.54321  -11.79388
       O    10.73794   -2.93356  -11.13380
      H1    11.06369   -3.52631  -10.42949
       H     9.11057    1.40082   -5.20057
       O     8.63325    0.61039   -5.52629
      H1     7.86989    0.60647   -4.93592
       H     6.14702    3.42763   -8.45664
       O     5.58205    3.77172   -9.15889
      H1     4.71354    3.37700   -8.95384
       H     6.85244    2.70238  -10.48102
       O     7.31212    2.05949  -11.02504
      H1     8.23946    2.34315  -10.91295
       H    10.64572    2.68672   -4.82999
       O    10.34667    2.94867   -5.71310
      H1    10.41815    2.17101   -6.25464
       H     8.07047    1.75430   -8.07775
       O     7.62650    2.53082   -7.66246
      H1     8.34353    3.14471   -7.46228
       H     5.25273    1.18566   -6.75482
       O     4.91242    1.65480   -5.97600
      H1     5.26573    2.53810   -6.05894
       H     5.02328    0.32728  -12.37364
       O     5.79791   -0.04065  -11.91176
      H1     6.20848    0.71579  -11.51458
       H     8.92204   -2.03363  -13.15802
       O     8.57393   -1.19019  -13.43546
      H1     7.84985   -1.05209  -12.85894
       H    12.12934    1.36243   -7.15504
       O    11.38101    0.80544   -7.35319
      H1    11.53844    0.00851   -6.81105
       H     7.91404   -2.04319   -7.10853
       O     6.96413   -2.18590   -7.07609
      H1     6.86616   -3.13713   -7.12938
       H     6.65903    0.73330   -7.55169
       O     6.07933    0.23698   -8.13827
      H1     6.11867   -0.64534   -7.79207
       H     9.40314   -0.75801   -6.38343
       O     9.65692   -1.37392   -7.07155
      H1     9.49352   -0.91789   -7.90766
       H    11.97024   -1.69724  -11.14106
       O    12.62936   -1.01200  -11.34616
      H1    12.96409   -0.70299  -10.46441
       H    12.66018    3.34942   -9.96060
       O    12.14457    2.94469   -9.23795
      H1    12.12828    3.62480   -8.57554
       H     9.83234   -0.17054  -12.60845
       O    10.34426    0.43628  -12.03113
      H1    11.16576   -0.01441  -11.83701
       H    13.11291    0.64204   -8.81326
       O    13.65954   -0.14275   -8.85284
      H1    13.36041   -0.67458   -8.11734
       H    10.53153   -2.90880   -8.02808
       O    10.59051   -3.73817   -8.55406
      H1    10.78045   -4.42487   -7.87891
       H     8.02903    0.15933   -9.46720
       O     8.91328    0.23221   -9.09199
      H1     9.43459    0.16878   -9.90464
       H    10.54684    2.98402  -11.78260
       O     9.83522    3.17061  -11.17455
      H1    10.26374    3.02983  -10.31351

