60
frame 2 | Written by MDAnalysis XYZWriter (release 2.4.3)
       H    -3.04663   -5.64304    1.86695
       O    -3.09513   -5.40126    0.93140
      H1    -3.77688   -4.71851    0.87426
       H     0.39865   -8.35571   -3.39951
       O     0.34681   -7.73819   -2.65319
      H1     1.15299   -7.25759   -2.77644
       H    -0.00787   -4.50607    2.89135
       O    -0.29675   -5.15616    3.56948
      H1     0.36531   -5.82164    3.50524
       H     2.91067   -4.05057    1.76917
       O     2.21068   -4.70861    1.80864
      H1     2.57813   -5.36177    2.41644
       H    -2.09567   -9.32113    3.32356
       O    -2.73631   -9.22418    4.05267
      H1    -2.78753   -8.29289    4.09340
       H     1.94621   -7.79690    3.34032
       O     1.34595   -7.20743    3.81190
      H1     0.50362   -7.56756    3.47771
       H    -4.79515   -9.30229    0.23773
       O    -4.43855  -10.13283   -0.13115
      H1    -4.07296  -10.63020    0.59998
       H    -1.93086   -6.01709    3.94935
       O    -2.77666   -6.46430    3.95752
      H1    -3.34035   -5.81010    4.42705
       H    -2.63354   -9.70430   -0.44533
       O    -1.69374   -9.49994   -0.53784
      H1    -1.65142   -8.63835   -0.08599
       H    -3.36097   -2.58673   -1.86069
       O    -3.09326   -3.48316   -2.07419
      H1    -3.96227   -3.90318   -2.20739
       H     0.30344   -2.81525    0.28662
       O     0.56435   -2.93792   -0.64453
      H1     0.54349   -2.02439   -1.00498
       H    -4.12320   -7.08524   -1.67121
       O    -4.73221   -6.79430   -0.96652
      H1    -4.15741   -6.43212   -0.25555
       H     1.47820   -8.06048   -0.22879
       O     1.85398   -8.95237   -0.10448
      H1     1.59328   -9.38364   -0.92721
       H     0.32057   -2.49951    3.08641
       O     0.07144   -2.90622    2.24399
      H1     0.83855   -3.49202    2.11712
       H    -1.37304   -6.17842   -2.02738
       O    -1.04070   -5.37184   -1.64676
      H1    -1.69837   -4.72833   -1.91211
       H     0.69625   -5.49791   -0.82242
       O     1.28953   -6.00665   -0.24722
      H1     1.56540   -5.32905    0.35476
       H    -0.55833   -8.40390    1.90110
       O    -0.45962   -9.04165    2.64680
      H1     0.36990   -9.45341    2.41502
       H    -1.21618   -2.68966    1.04807
       O    -1.90347   -2.39681    0.49652
      H1    -2.12194   -3.18149   -0.06369
       H    -1.47194   -6.26130    0.56270
       O    -0.89708   -7.01030    0.67634
      H1    -0.13167   -6.73693    0.16699
       H    -5.08527   -3.79927    2.44691
       O    -4.68759   -3.29335    1.72844
      H1    -3.90608   -2.85971    2.12005

