60
frame 2 | Written by MDAnalysis XYZWriter (release 2.4.3)
       H    14.22131    3.56635   13.10577
       O    13.77694    4.41236   13.19972
      H1    13.04975    4.26017   13.83590
       H     8.54585   11.07963   12.58432
       O     9.22245   10.53738   13.03066
      H1     9.72844   11.18058   13.57385
       H    14.39142   12.02719   17.26593
       O    14.16971   12.96279   17.01614
      H1    13.23941   12.96286   16.78572
       H    13.43704    8.81164   14.87983
       O    13.37121    9.76723   15.05332
      H1    13.63733   10.13956   14.20488
       H    13.10554    9.12364   18.62247
       O    12.29202    9.51464   18.20384
      H1    11.96895    8.85922   17.58252
       H    15.02285    8.64753   12.29198
       O    14.35251    8.68870   11.58937
      H1    13.60531    8.28780   12.03307
       H    12.99812   11.55653   12.00708
       O    13.75147   11.20483   12.48236
      H1    14.04209   10.39741   12.00568
       H    16.29966    7.86999   16.91269
       O    16.59853    7.78235   16.00843
      H1    17.52600    7.95897   16.05714
       H     9.01375    9.85315   15.12197
       O     8.77199    9.08365   15.65134
      H1     9.62593    8.67645   15.84798
       H     9.50107    8.29048   12.92137
       O     9.86968    7.39517   13.02810
      H1     9.13841    6.81069   12.77583
       H    11.58141    7.14364   12.68324
       O    12.55113    7.14041   12.73717
      H1    12.71242    6.24571   12.39392
       H    15.77182    6.44253   13.02558
       O    15.63439    7.26516   13.47850
      H1    15.78974    7.01783   14.38845
       H    13.16235    6.14312   14.81353
       O    12.71073    5.89172   15.60177
      H1    13.40244    5.86765   16.29090
       H    14.19536    5.09256   17.75513
       O    14.47769    6.00070   17.71258
      H1    15.40780    5.95279   17.59659
       H    14.66054    9.95328   16.46410
       O    15.33920   10.13911   17.11810
      H1    16.12981   10.34021   16.61606
       H    11.74900   10.29438   15.10390
       O    10.90756   10.79111   15.12755
      H1    11.02060   11.41040   15.86667
       H    15.22562   12.77254   13.94415
       O    15.72354   13.44516   14.42655
      H1    15.34065   13.31386   15.30906
       H    17.09825   10.63726   12.35393
       O    16.78043    9.85700   11.92897
      H1    16.80224   10.17180   11.01748
       H    11.02151   11.52710   12.12115
       O    11.40393   11.99944   11.36911
      H1    11.13224   11.44228   10.62723
       H    11.47323    7.13328   16.12211
       O    10.90230    7.62396   16.72292
      H1    10.91288    7.07574   17.53964

