60
frame 2 | Written by MDAnalysis XYZWriter (release 2.4.3)
       H    -6.59279   15.70206  -10.19874
       O    -6.56771   15.29016  -11.05926
      H1    -6.62574   14.33785  -10.83318
       H    -4.64239    8.31952   -7.31364
       O    -5.16749    8.51218   -8.09699
      H1    -4.60401    9.12567   -8.58587
       H    -4.88641   10.74389   -5.62406
       O    -4.01989   11.02008   -5.31241
      H1    -3.45341   11.05392   -6.07543
       H    -5.82448   12.91355   -7.37697
       O    -5.12763   12.70481   -8.01619
      H1    -4.40433   12.40700   -7.45911
       H    -3.05886   13.90532   -4.62343
       O    -3.96567   13.60797   -4.44443
      H1    -3.84918   12.66259   -4.49667
       H    -7.58618   12.97022   -9.33901
       O    -7.25461   12.89249  -10.23797
      H1    -6.61306   12.18992  -10.15802
       H    -4.26079   12.09994  -11.40408
       O    -3.46810   12.53256  -11.74013
      H1    -3.91850   13.15383  -12.37331
       H    -8.20962   17.21561   -8.15666
       O    -7.37410   16.95964   -8.55584
      H1    -6.77876   16.87073   -7.81960
       H    -5.91250   13.56429   -4.83438
       O    -6.36989   14.00468   -5.54788
      H1    -7.01598   14.54988   -5.11332
       H    -8.10625   14.26126   -6.78967
       O    -8.12513   14.02448   -7.74722
      H1    -9.02646   13.71986   -7.85777
       H    -1.92549   11.08290   -7.84852
       O    -2.57956   11.76378   -7.57642
      H1    -2.02612   12.53773   -7.36468
       H    -0.04698   11.53942  -10.01543
       O    -0.89653   11.08218  -10.08658
      H1    -1.49697   11.82617   -9.83921
       H    -7.61094   10.55898   -4.77200
       O    -6.99758   11.01925   -5.38628
      H1    -7.20068   11.94130   -5.25278
       H    -5.76036   15.29416   -6.54829
       O    -5.24622   15.81424   -7.19224
      H1    -4.66622   15.14676   -7.54701
       H    -3.37036   14.59507  -10.43995
       O    -3.78272   14.69846   -9.58418
      H1    -4.26219   13.84833   -9.45252
       H    -5.23853   11.18552   -9.18752
       O    -5.22629   10.64121   -9.97580
      H1    -5.99943   10.09683   -9.83809
       H    -6.76034    9.22392   -8.07496
       O    -7.60709    9.72480   -8.03870
      H1    -7.35257   10.44010   -7.50274
       H    -3.63329   16.42815   -6.52134
       O    -2.77640   16.72415   -6.25993
      H1    -2.65623   17.55687   -6.74533
       H    -4.41782   16.55328   -9.60017
       O    -4.71700   17.42365   -9.91862
      H1    -4.78047   17.19974  -10.85416
       H    -1.72438   15.10527   -7.02238
       O    -1.29311   14.23976   -7.14685
      H1    -0.39917   14.43360   -6.97975

