60
frame 2 | Written by MDAnalysis XYZWriter (release 2.4.3)
       H    11.96806   -9.95974   -7.16118
       O    12.18052  -10.87498   -7.33168
      H1    12.26600  -10.91691   -8.30310
       H    13.25139  -14.51011   -1.14367
       O    12.72536  -14.78602   -1.91796
      H1    12.48752  -13.94004   -2.30775
       H    11.01197  -13.55216   -8.48063
       O    10.62525  -13.09815   -7.76768
      H1    11.07716  -12.24242   -7.78865
       H    16.82915  -13.30097   -7.44651
       O    16.64946  -12.42892   -7.08760
      H1    17.48918  -12.00833   -6.85947
       H    13.85760  -10.53510   -6.35999
       O    14.76451  -10.27043   -6.00755
      H1    15.12008   -9.66020   -6.66405
       H    11.18723  -13.62984   -6.19417
       O    11.22295  -13.79462   -5.24752
      H1    12.05552  -14.27148   -5.21731
       H    14.27613  -15.57501   -2.39826
       O    15.10643  -16.01417   -2.73982
      H1    14.99920  -16.93179   -2.47934
       H    16.73410  -10.91324   -8.05255
       O    17.10001  -10.07702   -8.36490
      H1    17.49342   -9.65113   -7.58075
       H    17.83707  -14.94513   -8.97150
       O    17.30303  -15.25204   -8.22756
      H1    17.99966  -15.67556   -7.67034
       H    13.62667  -12.64293   -4.00766
       O    12.97631  -12.32185   -3.37369
      H1    12.15197  -12.68252   -3.72025
       H    14.43842  -15.21643   -9.89011
       O    15.01864  -15.95228   -9.65663
      H1    15.84515  -15.58151   -9.32487
       H    14.19044  -16.03424   -4.64409
       O    13.40340  -15.92368   -5.16235
      H1    12.80696  -16.52878   -4.72749
       H    15.58237  -12.76298   -4.70267
       O    14.91001  -13.35198   -5.13069
      H1    15.14661  -13.21949   -6.06122
       H    15.59645  -17.40844   -6.28107
       O    16.08927  -17.58030   -5.45372
      H1    16.49881  -16.70958   -5.23687
       H    16.09100  -12.88221   -2.32137
       O    16.61815  -12.65336   -3.10878
      H1    17.23724  -11.99358   -2.80558
       H    14.35527  -16.76761   -8.26649
       O    14.22853  -17.24373   -7.40490
      H1    13.99776  -16.52584   -6.78810
       H    14.33254  -10.73805   -1.90870
       O    13.88961  -10.00513   -2.37903
      H1    13.30827  -10.47267   -2.97136
       H    17.62348  -13.60382   -2.07599
       O    18.46228  -13.77969   -1.60291
      H1    18.16199  -14.26746   -0.81728
       H    17.27247  -15.73951   -3.79747
       O    17.50704  -15.31368   -4.62083
      H1    16.87891  -14.58416   -4.64383
       H    14.19745   -8.71440   -3.56201
       O    14.62213   -8.23679   -4.26354
      H1    14.85546   -8.95258   -4.84095

