60
frame 2 | Written by MDAnalysis XYZWriter (release 2.4.3)
       H     7.26647   -7.95576   14.07218
       O     7.92623   -7.23810   14.03425
      H1     7.93413   -7.07380   13.07762
       H     4.52662   -6.77468   14.74752
       O     4.04317   -7.58855   14.57119
      H1     4.00033   -7.54289   13.58847
       H     6.07379   -1.08021   16.90116
       O     6.73611   -1.77667   16.89452
      H1     6.79515   -1.98158   15.95303
       H     2.44064   -7.04954   17.56528
       O     3.01077   -6.32703   17.87306
      H1     2.49716   -5.86126   18.51747
       H    11.84307   -6.93670   17.94495
       O    11.94350   -6.94686   18.91721
      H1    12.17719   -6.03833   19.12478
       H     4.17205   -5.18263   16.72321
       O     4.73263   -4.59962   16.21618
      H1     5.55358   -5.06638   16.19889
       H     8.23431   -1.09079   17.52349
       O     9.13265   -0.80157   17.65988
      H1     9.54881   -1.29508   16.96173
       H     4.00603   -8.61515   16.26286
       O     4.62878   -9.08663   16.83289
      H1     4.46587   -8.66201   17.66788
       H    10.30152   -2.95176   19.22307
       O    10.76161   -3.60266   18.66953
      H1    10.03059   -4.11020   18.33204
       H     9.03222   -9.79981   17.95868
       O     9.12890   -9.33702   17.13191
      H1     9.57819   -9.99635   16.57246
       H     4.40297   -3.57246   17.51259
       O     4.02744   -3.01885   18.22685
      H1     3.22445   -2.74571   17.85334
       H     7.42487   -8.72095   18.09481
       O     7.44843   -8.56205   19.06449
      H1     6.76092   -7.87457   19.15366
       H    10.77960   -6.34688   16.70771
       O    11.60172   -6.69562   16.32823
      H1    12.08905   -5.87934   16.11963
       H     5.38641   -0.13589   18.88793
       O     4.64822   -0.42059   18.33979
      H1     4.74708   -1.37909   18.30753
       H    10.19306   -0.80120   14.69248
       O    10.37429   -1.60930   15.20962
      H1    10.43260   -2.27147   14.48303
       H     5.59006   -9.58577   13.81718
       O     6.25805   -9.35963   14.47162
      H1     5.76054   -9.12917   15.27726
       H     7.32703   -3.12341   17.85123
       O     7.56168   -3.89061   18.41333
      H1     7.60822   -4.68826   17.85666
       H     7.55399   -5.65423   14.94599
       O     7.37553   -5.07770   15.68818
      H1     7.60868   -4.23192   15.32177
       H     7.67136   -3.19082   13.70039
       O     7.70832   -2.64558   14.52444
      H1     8.67612   -2.56626   14.66415
       H     9.18171   -7.14596   17.15992
       O     9.15174   -6.19741   17.30441
      H1     8.55848   -5.91997   16.60897

