60
frame 4 | Written by MDAnalysis XYZWriter (release 2.4.3)
       H   -10.91928    7.34508   -4.29154
       O    -9.98228    7.40696   -4.60589
      H1    -9.56221    7.70663   -3.82743
       H   -16.65135   11.84106   -5.24665
       O   -17.05717   11.75700   -4.40846
      H1   -17.34361   10.83572   -4.27008
       H   -14.91493    6.88253   -1.67805
       O   -14.42791    7.24275   -2.48809
      H1   -14.48519    8.22996   -2.56064
       H   -13.71436    9.65432   -9.74331
       O   -12.85305    9.36751  -10.00119
      H1   -12.33899   10.20992  -10.03499
       H   -13.02229   13.58678   -5.41949
       O   -13.49650   13.88538   -6.20678
      H1   -12.80444   14.15816   -6.86662
       H   -12.63654    9.31830   -5.88212
       O   -13.02485    8.73222   -6.57626
      H1   -13.81206    9.12499   -6.94012
       H   -10.25624   11.53116  -10.02394
       O   -11.07424   11.59062   -9.46873
      H1   -11.52926   12.43569   -9.73754
       H   -17.03057    8.49748   -4.64792
       O   -17.57480    9.18402   -4.21303
      H1   -17.39723    9.16354   -3.22399
       H   -14.59132    6.94528   -8.15450
       O   -15.43303    7.34353   -8.35145
      H1   -15.79962    6.66203   -8.92318
       H   -12.92432    5.74578   -6.51244
       O   -13.24099    5.40922   -7.36956
      H1   -12.57768    5.62725   -8.05103
       H   -14.42388   11.13457   -2.64110
       O   -14.71272   10.26679   -2.99761
      H1   -15.49438   10.44112   -3.51226
       H   -12.07113    7.47417  -10.22299
       O   -11.77306    6.58791  -10.02225
      H1   -11.00063    6.68970   -9.48113
       H   -17.93220    7.26643   -6.66509
       O   -17.07957    7.40986   -6.15079
      H1   -16.41800    7.45682   -6.85787
       H   -12.01605   11.96254   -4.44981
       O   -11.83913   12.87838   -4.13129
      H1   -12.14313   12.95331   -3.21196
       H   -10.83070   11.76459   -7.87292
       O   -10.57149   11.95484   -6.93224
      H1   -10.93736   12.88232   -6.90120
       H   -11.37048    8.16481   -7.41004
       O   -10.40270    8.26944   -7.23133
      H1   -10.35865    8.10715   -6.29938
       H   -15.49111   11.42280   -7.45540
       O   -15.63360   12.21866   -6.94794
      H1   -14.83214   12.67684   -6.74556
       H   -11.14603   10.62767   -5.81541
       O   -11.49693   10.21093   -5.03935
      H1   -10.70626   10.02032   -4.45448
       H   -12.85356    7.65651   -5.22489
       O   -12.68142    6.87877   -4.62924
      H1   -13.27057    6.85492   -3.84898
       H   -15.40857    9.00932   -8.70699
       O   -15.26819    9.93172   -8.81513
      H1   -15.72492   10.25787   -9.59709

