60
frame 0 | Written by MDAnalysis XYZWriter (release 2.4.3)
       H     5.38883    5.54738   17.74721
       O     5.33724    5.92747   16.84046
      H1     4.36939    5.92278   16.69652
       H    11.02797   10.06003   12.76039
       O    10.72891    9.54506   13.51237
      H1    11.49131    9.45836   14.09259
       H     5.36205    6.19298   13.25225
       O     5.01608    6.43699   12.38136
      H1     5.05544    5.53245   11.92367
       H     4.99787   10.48188   12.14057
       O     4.95307   10.66603   11.20313
      H1     3.99910   10.79818   11.04127
       H     7.39230    8.17033   14.73315
       O     7.17536    8.10545   15.67082
      H1     6.58464    7.35472   15.75507
       H     5.64023    7.51792   11.20592
       O     6.20541    8.08285   10.61189
      H1     5.81308    8.97356   10.64384
       H    10.15026   10.22004   17.91063
       O    10.35521    9.95749   18.79794
      H1     9.75021    9.24315   18.97622
       H     9.31162   11.57806   15.80089
       O    10.14172   11.18852   16.14955
      H1    10.41298   10.58229   15.45806
       H    10.60389    6.73646   14.47828
       O     9.69669    6.97371   14.26624
      H1     9.77041    7.87642   13.90093
       H     8.08426   10.95692   11.87077
       O     7.57373   11.05270   12.67082
      H1     8.08623   11.78402   13.08392
       H     4.41802   10.05072   14.36046
       O     3.76748   10.14796   13.62698
      H1     3.28030   10.98043   13.87562
       H     6.85035    4.62481   14.42196
       O     5.93000    4.93037   14.44743
      H1     5.75379    5.04092   15.39519
       H     7.27551    9.19480   12.89208
       O     7.40098    8.24584   13.04243
      H1     6.82716    7.90542   12.35976
       H     8.39565    7.40100   16.70785
       O     9.03819    7.20102   17.42883
      H1     9.79582    7.01779   16.89060
       H     6.19520   12.15142   13.35827
       O     5.83934   12.76689   14.02197
      H1     4.92871   12.46286   14.19314
       H     7.01946    4.92524   11.48182
       O     7.45112    5.12955   10.63060
      H1     8.34108    5.43436   10.88633
       H     9.00544    5.24805   14.43219
       O     8.62527    4.37475   14.30807
      H1     8.68108    3.98174   15.16392
       H     6.02745    9.80949   15.87746
       O     5.11121    9.92371   16.02210
      H1     4.90379    9.13141   16.51381
       H     5.08926    7.44044   17.64908
       O     4.46342    8.14434   17.82375
      H1     4.96066    8.57762   18.51589
       H    10.12337    5.71100   12.57179
       O    10.23222    5.76140   11.63933
      H1    10.18645    6.68264   11.45729

