60
frame 2 | Written by MDAnalysis XYZWriter (release 2.4.3)
       H    12.61913    0.30443    9.46705
       O    13.16118   -0.44962    9.74766
      H1    13.26974   -0.30212   10.69776
       H    15.47646   -6.16859    9.16092
       O    15.27194   -5.74293   10.02208
      H1    16.18272   -5.67358   10.41653
       H    14.36621   -3.32391    8.63161
       O    14.05516   -3.47477    9.54889
      H1    14.09148   -4.42228    9.67711
       H    13.27335   -7.90424    7.84506
       O    12.94166   -7.40156    8.57352
      H1    13.06142   -7.98083    9.30561
       H    17.51695   -4.90581    7.80636
       O    18.26822   -4.40724    7.46032
      H1    18.28692   -4.60708    6.51078
       H    15.04053   -0.24364    9.73047
       O    15.97278   -0.26432    9.52635
      H1    16.41037   -0.14135   10.38099
       H    14.95678   -2.93634    6.42805
       O    14.73918   -3.70785    6.92568
      H1    15.51988   -4.27337    6.82307
       H    11.50301   -4.49171    9.44827
       O    11.18418   -5.39428    9.44576
      H1    11.91623   -5.93567    9.21078
       H    18.14721   -0.49921   11.31021
       O    17.30138   -0.46027   11.83115
      H1    16.80093   -1.27090   11.60760
       H    10.91066   -2.54602    9.32893
       O    11.54085   -2.67371    8.60901
      H1    12.39933   -2.62822    9.07133
       H    13.22410   -3.41198   11.18002
       O    12.78089   -3.68128   12.01044
      H1    13.33996   -3.18702   12.64638
       H    16.37990   -1.15005    5.17667
       O    15.80536   -1.25171    5.95631
      H1    16.43957   -1.41651    6.66396
       H    17.44377   -1.30072    8.59162
       O    17.71612   -1.62547    7.73060
      H1    17.80758   -2.58268    7.81527
       H    13.32602    0.50463    6.63581
       O    14.15054    0.80126    6.22543
      H1    14.72089    0.03104    6.15195
       H    16.24985   -7.01774    7.49445
       O    15.82660   -6.17865    7.34158
      H1    15.64967   -6.26374    6.37708
       H    15.94238   -3.78173   12.10569
       O    16.14432   -3.03002   11.50642
      H1    15.52227   -3.25190   10.80226
       H    12.56359   -3.16465    6.26217
       O    12.12743   -2.50258    5.72734
      H1    12.33562   -1.73568    6.25202
       H    12.79313   -7.43453   12.16408
       O    13.12403   -6.63749   12.64617
      H1    13.10931   -5.96465   11.95897
       H    11.06571    0.24996    6.14239
       O    11.54408   -0.07058    6.86683
      H1    11.03424   -0.80554    7.20050
       H     9.61879   -4.85952    6.88722
       O     9.93956   -5.75516    6.99409
      H1    10.52541   -5.68620    7.74688

