60
frame 2 | Written by MDAnalysis XYZWriter (release 2.4.3)
       H    -3.04663   -5.64304    1.86695
       O    -3.09513   -5.40126    0.93140
      H1    -3.77688   -4.71851    0.87426
       H     0.39865   -8.35571   -3.39951
       O     0.34681   -7.73819   -2.65319
      H1     1.15299   -7.25759   -2.77644
       H    -0.82415   -6.43101   -5.30320
       O    -0.16779   -6.80708   -5.92204
      H1    -0.71773   -7.08350   -6.65883
       H    -3.49990   -5.21566   -4.90881
       O    -2.77769   -5.86058   -4.81456
      H1    -3.08053   -6.50518   -4.15360
       H     2.05439   -5.36445   -2.98779
       O     2.48108   -6.17763   -2.70527
      H1     2.45581   -6.11122   -1.73865
       H    -2.63354   -9.70430   -0.44533
       O    -1.69374   -9.49994   -0.53784
      H1    -1.65142   -8.63835   -0.08599
       H    -4.24452   -7.83468   -3.98094
       O    -3.56935   -7.75440   -3.29853
      H1    -3.08403   -8.56936   -3.30128
       H    -1.48117   -0.67333   -3.57505
       O    -1.24805   -1.48120   -3.09394
      H1    -2.11184   -1.94054   -3.06869
       H    -1.57694  -10.83208   -3.40460
       O    -1.36141   -9.88094   -3.38441
      H1    -1.37284   -9.67533   -2.43551
       H    -3.36097   -2.58673   -1.86069
       O    -3.09326   -3.48316   -2.07419
      H1    -3.96227   -3.90318   -2.20739
       H     0.30344   -2.81525    0.28662
       O     0.56435   -2.93792   -0.64453
      H1     0.54349   -2.02439   -1.00498
       H    -4.12320   -7.08524   -1.67121
       O    -4.73221   -6.79430   -0.96652
      H1    -4.15741   -6.43212   -0.25555
       H    -6.03449   -4.16609   -1.30795
       O    -5.48052   -4.56943   -1.97872
      H1    -5.34915   -5.49088   -1.72129
       H     1.47820   -8.06048   -0.22879
       O     1.85398   -8.95237   -0.10448
      H1     1.59328   -9.38364   -0.92721
       H    -0.57061   -3.22878   -5.99006
       O    -1.15866   -3.92627   -6.29664
      H1    -1.56251   -4.20596   -5.48178
       H    -1.37304   -6.17842   -2.02738
       O    -1.04070   -5.37184   -1.64676
      H1    -1.69837   -4.72833   -1.91211
       H     0.69625   -5.49791   -0.82242
       O     1.28953   -6.00665   -0.24722
      H1     1.56540   -5.32905    0.35476
       H    -1.21618   -2.68966    1.04807
       O    -1.90347   -2.39681    0.49652
      H1    -2.12194   -3.18149   -0.06369
       H    -1.47194   -6.26130    0.56270
       O    -0.89708   -7.01030    0.67634
      H1    -0.13167   -6.73693    0.16699
       H     2.09177   -3.31570   -3.46557
       O     1.28549   -3.82266   -3.29966
      H1     0.92910   -3.49040   -2.47803

