60
frame 2 | Written by MDAnalysis XYZWriter (release 2.4.3)
       H    -7.48767   16.24904   17.88185
       O    -6.55962   16.00467   17.74664
      H1    -6.08922   16.52414   18.42742
       H    -3.33453   16.31048   10.16272
       O    -3.40295   15.40996   10.44802
      H1    -4.04544   15.37278   11.14298
       H     1.14242   15.59815   12.74627
       O     0.77274   15.93209   13.57173
      H1     1.33391   15.40161   14.22070
       H    -6.09226   17.42635   15.05965
       O    -5.61045   17.62134   15.84429
      H1    -6.17403   17.19541   16.53564
       H    -5.46129   14.53111   18.26284
       O    -5.40717   13.63840   18.63809
      H1    -6.34457   13.52635   18.85296
       H    -3.86713   14.20623   15.04725
       O    -2.95043   14.52086   15.14297
      H1    -2.95831   15.22537   15.76883
       H    -7.38745   13.41350   14.78278
       O    -7.66784   12.51516   14.97466
      H1    -6.90167   11.94111   14.88282
       H    -4.27126   18.43642   13.97103
       O    -3.41970   18.84769   13.96043
      H1    -2.94350   18.35047   13.35308
       H    -2.43806   15.50944   13.71002
       O    -2.02158   16.06365   13.05239
      H1    -1.08163   16.08860   13.31526
       H     1.53022   16.04204   19.36465
       O     2.18337   15.63316   18.73988
      H1     1.61512   15.33805   17.98211
       H    -3.18005   17.02071   17.44086
       O    -3.09191   16.81731   16.51307
      H1    -3.94165   17.04237   16.09583
       H    -6.88824   18.32178   12.77041
       O    -6.04444   17.90767   13.09117
      H1    -6.05785   16.99376   12.71476
       H    -1.07555   17.03521   15.77795
       O    -0.16863   17.31044   15.90275
      H1     0.20956   17.31138   14.98982
       H    -1.28266   12.38334   17.44231
       O    -1.36140   13.36350   17.29042
      H1    -1.84291   13.47922   16.46457
       H    -0.89270   13.05641   12.64832
       O    -0.57903   12.50544   13.33953
      H1    -1.08195   11.67290   13.20756
       H    -0.83013   18.63477   12.59336
       O    -1.34931   18.29159   11.85403
      H1    -1.79463   17.47569   12.20956
       H    -4.79326   12.19571   17.51095
       O    -4.64734   11.22932   17.39604
      H1    -4.86811   11.10334   16.44489
       H     0.78095   15.97108   16.11442
       O     1.23554   15.12050   16.25959
      H1     0.53458   14.46578   16.44973
       H    -5.89919   14.65887   11.48639
       O    -5.55832   15.05863   12.29127
      H1    -6.12149   14.74176   13.02810
       H    -6.76466   15.29016   15.63876
       O    -6.93889   15.01560   14.74076
      H1    -7.60971   15.67716   14.43698

