60
frame 2 | Written by MDAnalysis XYZWriter (release 2.4.3)
       H     1.97703   12.03152   -2.63550
       O     1.20015   11.45114   -2.51197
      H1     0.42644   12.02157   -2.54760
       H    -6.75586   14.94380   -2.55580
       O    -6.01462   14.31272   -2.46468
      H1    -5.26534   14.89512   -2.66816
       H    -3.05886   13.90532   -4.62343
       O    -3.96567   13.60797   -4.44443
      H1    -3.84918   12.66259   -4.49667
       H     2.97643   13.72635   -2.90693
       O     3.49774   13.14187   -2.32649
      H1     4.37705   13.20532   -2.68627
       H    -3.47367   15.39637   -0.53022
       O    -3.53031   15.73590   -1.41265
      H1    -4.17216   16.44277   -1.31618
       H    -0.95906   12.84655    0.82884
       O    -1.46957   13.26090    0.12992
      H1    -2.31770   13.16180    0.49136
       H    -3.54692   16.20531    1.80325
       O    -2.89794   15.78873    1.23384
      H1    -2.26915   15.37518    1.83417
       H     0.57499   11.02804   -4.32386
       O    -0.26992   10.81450   -4.74197
      H1    -0.90237   10.63897   -3.98250
       H     0.58296   11.84515    1.97364
       O    -0.31443   12.09130    2.24174
      H1    -0.13285   12.74488    2.94565
       H     0.57160   14.56631   -3.86909
       O     1.19449   14.57202   -3.14733
      H1     1.62753   15.43660   -3.20434
       H    -1.37442   13.26318   -3.22188
       O    -1.32760   12.65580   -2.45746
      H1    -1.31613   13.23058   -1.70236
       H     1.25445    9.67840    0.34585
       O     0.71852   10.47584    0.04699
      H1     1.20453   10.69821   -0.76319
       H    -1.85728   10.92766   -2.14148
       O    -1.77474    9.96763   -2.28371
      H1    -2.59620    9.69391   -2.68073
       H    -1.47806   14.18223   -5.52153
       O    -1.53821   14.64542   -4.66217
      H1    -1.66433   15.54489   -4.96853
       H    -0.25951   14.61617   -0.20805
       O     0.22419   15.43654   -0.45841
      H1     0.30087   15.31942   -1.42860
       H    -0.50342    8.84028   -2.39076
       O     0.20806    8.18754   -2.33999
      H1     0.95244    8.68523   -1.96992
       H    -2.33065   10.55510    0.79067
       O    -1.78852    9.77702    0.92397
      H1    -0.92287    9.96468    0.47675
       H    -4.40261   13.48255    1.13741
       O    -3.92814   12.62388    1.08016
      H1    -4.13063   12.33761    0.20101
       H     2.22002   17.09621    1.24718
       O     1.39013   16.66017    1.50068
      H1     1.10136   16.17230    0.75617
       H    -1.52135   17.72602   -0.39836
       O    -1.81857   17.75130   -1.33365
      H1    -2.24321   16.89388   -1.43783

