60
frame 2 | Written by MDAnalysis XYZWriter (release 2.4.3)
       H    14.58080  -11.06388    5.09870
       O    14.06209  -10.88223    5.89540
      H1    13.32213  -11.50120    5.93596
       H     9.56972  -16.32468    4.09134
       O     8.86518  -16.64013    3.51866
      H1     9.02070  -17.59976    3.49968
       H    14.45418  -14.71976    6.30916
       O    13.77637  -14.50905    5.69252
      H1    12.93240  -14.72244    6.12254
       H    10.83821  -13.98486    7.45481
       O    11.67015  -14.47946    7.62918
      H1    12.08777  -14.00504    8.38080
       H     8.67268  -16.55175    8.55346
       O     8.17101  -16.15802    7.81925
      H1     8.46181  -15.25018    7.70478
       H    11.20273  -11.10326   11.47579
       O    11.86254  -11.40770   10.81556
      H1    11.62222  -10.81467   10.08667
       H     8.27006  -10.87749    8.59488
       O     7.91145  -11.71493    8.88632
      H1     7.09861  -11.83509    8.38727
       H     9.97662  -18.81198    7.84794
       O    10.82921  -18.87531    8.31828
      H1    10.94956  -18.01194    8.68110
       H    10.89920  -16.34582    6.70172
       O    11.06801  -17.02016    6.07100
      H1    10.19970  -17.42716    5.88663
       H    13.07742  -17.04815    6.08455
       O    14.00784  -17.20092    6.23805
      H1    14.44633  -16.79880    5.46329
       H     8.40017  -10.92663    5.68544
       O     9.09717  -10.37615    5.31140
      H1     9.85227  -10.99620    5.40090
       H     8.81138  -13.40582    6.44424
       O     9.19071  -13.52699    7.33280
      H1     8.83337  -12.83680    7.89143
       H    10.87667  -15.55430    8.64902
       O    10.44556  -16.23438    9.17875
      H1    10.20985  -15.77529    9.98118
       H    11.36998  -14.45908    3.97779
       O    10.49030  -14.59049    4.33740
      H1     9.88413  -14.35185    3.65764
       H     5.86789  -15.14378    6.39237
       O     5.82965  -14.37439    6.97380
      H1     6.55150  -13.80049    6.74053
       H    11.11508  -12.86838    5.32294
       O    11.36905  -11.94424    5.20034
      H1    11.60656  -11.87347    4.25452
       H    12.60516  -10.17410    7.78723
       O    11.73205  -10.12080    8.17102
      H1    11.35944   -9.39324    7.67343
       H    12.67672  -12.79658    9.98093
       O    12.97333  -13.70897    9.82166
      H1    13.94131  -13.61930    9.94135
       H     8.59060  -12.83960    4.01799
       O     8.03037  -13.01574    4.78450
      H1     7.14381  -13.15356    4.47087
       H    13.47044  -13.83361    4.09214
       O    13.13359  -13.55964    3.24259
      H1    13.50383  -12.67467    3.15422

