60
frame 2 | Written by MDAnalysis XYZWriter (release 2.4.3)
       H   -13.53169   -2.66647   -5.01606
       O   -13.80218   -2.91885   -5.89211
      H1   -14.58716   -2.41755   -6.08838
       H   -19.16526    1.99428   -5.15355
       O   -18.50244    2.41625   -5.73109
      H1   -18.19331    1.69056   -6.29269
       H   -16.40279   -0.98150   -1.80821
       O   -16.33505   -0.67303   -2.73061
      H1   -16.72661    0.21218   -2.69325
       H   -12.90023    3.52425   -4.63736
       O   -12.18851    4.16004   -4.60763
      H1   -11.91060    4.16505   -3.66795
       H   -15.13373    2.28527   -4.56892
       O   -14.35124    2.62381   -5.00457
      H1   -13.96618    1.88428   -5.51564
       H   -13.35319   -0.96261   -9.22410
       O   -13.59830   -0.32009   -8.57811
      H1   -14.47084   -0.08930   -8.91212
       H   -10.63879    2.91583   -2.94340
       O   -10.86290    3.41024   -2.14633
      H1   -10.38827    4.24070   -2.23790
       H   -14.03489    3.97768   -1.87157
       O   -13.59178    3.14926   -1.68257
      H1   -12.66193    3.21440   -1.93805
       H   -12.31630    5.21995  -10.08829
       O   -12.20365    4.33970   -9.72562
      H1   -12.84592    4.32770   -9.01431
       H   -17.50422    2.43276   -2.89158
       O   -17.21500    1.73105   -3.47944
      H1   -17.70348    1.88725   -4.29297
       H   -13.43747   -0.98852   -3.33077
       O   -13.35436   -1.94900   -3.36982
      H1   -12.40979   -2.09209   -3.56160
       H   -11.03274    4.23908   -6.18330
       O   -10.41558    4.11805   -6.90040
      H1   -10.71767    3.30068   -7.28387
       H   -12.02511    0.78339   -6.39016
       O   -12.71010    1.42439   -6.56843
      H1   -12.58649    1.66217   -7.49751
       H   -10.02068   -0.66090   -6.58699
       O   -10.48229   -0.43885   -5.79214
      H1   -10.63647   -1.28298   -5.38483
       H   -11.00532    1.00735   -8.55910
       O   -11.55005    1.66907   -8.97645
      H1   -12.39986    1.25138   -9.06192
       H   -10.76939    0.54519   -4.47614
       O   -10.74624    1.04603   -3.63566
      H1   -10.13597    0.56150   -3.08657
       H   -14.75276    0.06933   -5.08809
       O   -14.94892   -0.46041   -5.87807
      H1   -14.18861   -0.29788   -6.45508
       H   -14.59550    4.93359   -7.78087
       O   -14.39205    3.97826   -7.64072
      H1   -14.79438    3.87784   -6.76647
       H   -16.87321    1.69566   -7.77077
       O   -17.15139    0.86620   -7.37746
      H1   -16.40560    0.56525   -6.84010
       H   -13.79374    1.37213   -2.43333
       O   -13.90599    0.40926   -2.34227
      H1   -14.83584    0.20449   -2.55498

