60
frame 0 | Written by MDAnalysis XYZWriter (release 2.4.3)
       H    -9.29394    3.75099    9.46892
       O    -9.75440    3.23024    8.81187
      H1   -10.50765    2.89904    9.29177
       H   -12.87995    4.51979    9.42645
       O   -13.39132    4.06800    8.73932
      H1   -13.21268    4.66089    8.00632
       H   -10.39661    6.36597    8.84989
       O    -9.64598    6.52256    8.23227
      H1   -10.06367    6.66709    7.36877
       H    -7.03897    8.25036    9.76628
       O    -6.52175    7.42060    9.65668
      H1    -5.93075    7.65611    8.93467
       H   -12.41968    7.30155    9.28750
       O   -12.00476    6.44320    9.43217
      H1   -11.85028    6.42066   10.35908
       H   -11.70433    7.10945    6.20323
       O   -10.88385    7.09374    5.69766
      H1   -11.26017    7.23223    4.79048
       H    -8.77557    7.51065    2.96441
       O    -8.60467    7.13305    3.81736
      H1    -7.77715    6.68246    3.77678
       H    -7.08018    4.88727   10.35156
       O    -7.99058    5.13201   10.04607
      H1    -7.80367    5.99726    9.66293
       H   -12.56029    4.61957    6.10527
       O   -13.24151    5.22610    6.28971
      H1   -13.92561    4.92959    5.69286
       H   -10.62574    3.79422    5.36864
       O   -11.17084    3.27264    5.95556
      H1   -10.65646    3.12160    6.76342
       H    -6.82850    8.62859    5.90251
       O    -7.61598    8.98785    5.51026
      H1    -7.85443    8.26977    4.89737
       H    -9.55223    9.21565    7.56613
       O    -9.04701    9.05466    8.36168
      H1    -9.01612    8.08516    8.36224
       H   -11.03518    9.42106    5.90655
       O   -10.13604    9.81583    5.99997
      H1    -9.53383    9.16757    5.67591
       H   -12.52777    7.88378    3.24436
       O   -11.66384    7.46184    3.00916
      H1   -11.93099    6.70535    2.49142
       H    -8.16643    5.75583    7.40971
       O    -7.54043    5.69452    6.67618
      H1    -7.55379    6.59833    6.27748
       H   -12.22647    9.10836    9.89265
       O   -13.06573    8.93732    9.46974
      H1   -13.67850    9.47493   10.01163
       H    -5.82497    5.00001    7.30606
       O    -4.99458    4.96160    7.78582
      H1    -4.45010    4.34845    7.25750
       H   -13.17970    9.50187    7.72775
       O   -12.77872    9.82738    6.89218
      H1   -13.50877    9.88899    6.25265
       H    -9.21246    6.12406   11.31843
       O    -9.98365    5.82140   11.80124
      H1    -9.97685    4.90020   11.60789
       H    -9.46480    5.52854    4.33041
       O    -9.38600    4.55657    4.45855
      H1    -8.58770    4.50849    5.05700

