60
frame 4 | Written by MDAnalysis XYZWriter (release 2.4.3)
       H    16.38526  -11.49213   14.76877
       O    16.28388  -12.27962   15.37420
      H1    15.67708  -12.00868   16.05026
       H    16.22689  -18.69576   19.74189
       O    15.26526  -18.76119   19.57220
      H1    15.29381  -18.11450   18.81890
       H    17.96721  -14.33912   17.76641
       O    17.92101  -15.03737   17.08323
      H1    18.41397  -15.77132   17.47663
       H    14.45096  -16.43041   14.16325
       O    13.72229  -16.37173   14.83694
      H1    12.92213  -16.52344   14.29382
       H    12.78644  -14.20670   15.48616
       O    11.98745  -13.86407   15.97850
      H1    11.30474  -13.94080   15.28241
       H    19.58595  -17.92963   16.61787
       O    19.65792  -17.36386   17.41824
      H1    19.45432  -17.93015   18.16089
       H    17.21691  -15.92888   12.95288
       O    17.51725  -16.39977   12.15108
      H1    18.46788  -16.23372   12.09572
       H    19.03081  -12.89938   11.99400
       O    18.91241  -12.49822   11.05502
      H1    19.74168  -12.70104   10.54744
       H    16.72105  -18.22084   16.61965
       O    16.81680  -18.81754   15.89381
      H1    16.82347  -19.68667   16.34263
       H    14.47991  -12.62518   17.38703
       O    14.39039  -11.66564   17.18927
      H1    14.63135  -11.08357   17.91174
       H    18.13921  -13.17121   19.61505
       O    19.03061  -13.46514   19.33174
      H1    19.21994  -12.73357   18.73598
       H    19.56273  -11.77415   16.29484
       O    19.03138  -11.65605   17.09089
      H1    18.14330  -12.02378   16.91306
       H    17.22820  -18.45792   12.30817
       O    16.87303  -19.37888   12.32577
      H1    15.94804  -19.39513   12.08769
       H    14.26883  -14.21863   14.25360
       O    13.63375  -13.75795   13.68807
      H1    14.18556  -12.98912   13.27723
       H    12.07400  -15.76164   18.50368
       O    12.63178  -15.93979   17.77726
      H1    12.43376  -15.18874   17.21277
       H    15.36700  -14.08505   18.80604
       O    14.84909  -14.14773   17.95806
      H1    14.25935  -14.93973   18.04160
       H    18.50824  -19.00603   15.62069
       O    19.44230  -19.00827   15.37471
      H1    19.77331  -19.82668   15.69201
       H    16.36436  -14.02326   14.71917
       O    16.55454  -14.86039   14.26304
      H1    17.17309  -15.41661   14.73487
       H    17.95551   -9.96884   14.30421
       O    17.95223  -10.77744   13.74987
      H1    18.08585  -10.36565   12.89811
       H    15.17436  -17.13457   17.02584
       O    15.84508  -16.87016   17.62310
      H1    16.11922  -15.91001   17.39689

