60
frame 2 | Written by MDAnalysis XYZWriter (release 2.4.3)
       H   -12.15088    6.10117   -5.12936
       O   -12.67082    6.88339   -4.89585
      H1   -12.16880    7.66819   -5.13611
       H   -12.93531   12.26554   -6.27826
       O   -13.50759   12.67768   -5.62049
      H1   -12.96705   12.57929   -4.81929
       H   -17.52903    5.75375   -3.38895
       O   -17.23679    6.26333   -4.15293
      H1   -17.64338    7.11815   -3.91238
       H   -14.92291   11.00095   -5.36687
       O   -15.08386   10.09619   -5.70186
      H1   -15.95167   10.17761   -6.15042
       H   -11.38256   11.22917   -8.78786
       O   -12.23249   11.68920   -8.58634
      H1   -12.80131   10.95389   -8.32603
       H   -16.52055    9.78784   -1.64418
       O   -16.28288   10.35372   -0.91461
      H1   -15.45915   10.78244   -1.19393
       H   -14.46245    6.88328   -5.76588
       O   -15.36368    6.66821   -6.06084
      H1   -15.74390    6.27802   -5.26803
       H   -17.72001   12.92020   -5.46079
       O   -18.07593   12.08281   -5.80299
      H1   -17.81263   12.05476   -6.72650
       H   -15.39657    8.82804  -10.57033
       O   -15.66210    8.99381  -11.50607
      H1   -15.04254    9.60081  -11.93311
       H   -13.80376    9.73775   -7.03953
       O   -13.31614    9.40642   -7.78154
      H1   -12.47306    9.08495   -7.38420
       H   -11.73277   12.39417   -3.02911
       O   -12.36689   11.71778   -3.36805
      H1   -13.12147   11.85154   -2.77346
       H   -15.01756   12.96062   -2.12615
       O   -14.48871   12.30099   -1.60673
      H1   -14.43061   12.74172   -0.74225
       H   -16.30767    7.87840   -3.26778
       O   -16.32634    8.84207   -3.19675
      H1   -15.87096    9.06299   -4.00634
       H   -14.47159   14.37983   -7.41818
       O   -14.22533   15.00262   -8.10554
      H1   -14.29965   15.85461   -7.61250
       H   -15.41060    7.11196   -8.57364
       O   -14.72795    7.54370   -9.13992
      H1   -14.23340    8.15780   -8.55485
       H   -17.88526   12.29756   -2.05471
       O   -17.82965   13.06340   -1.47159
      H1   -17.33592   12.65916   -0.72672
       H   -14.44040   12.33853  -10.23717
       O   -15.12931   11.71578   -9.92174
      H1   -15.77703   11.62835  -10.63107
       H   -16.73152    7.70051   -6.71810
       O   -17.40249    8.36188   -6.91991
      H1   -17.34021    8.44753   -7.88052
       H   -17.08869   13.45373   -8.81625
       O   -16.85874   12.75987   -8.16233
      H1   -16.14687   12.29037   -8.63180
       H   -18.79872    8.71932   -9.06665
       O   -17.97975    8.62976   -9.54285
      H1   -17.71942    7.71786   -9.29116

