60
frame 2 | Written by MDAnalysis XYZWriter (release 2.4.3)
       H    12.89182    4.68276    1.69467
       O    12.36206    4.20127    2.36441
      H1    13.05438    4.08361    3.06314
       H     4.91821    1.68265    3.93458
       O     5.46846    0.92878    4.27805
      H1     5.90469    0.70409    3.44508
       H     7.40670    7.92874    3.64678
       O     8.06191    7.67134    2.98842
      H1     7.56813    7.18792    2.32864
       H     8.68166    6.40385    4.30432
       O     9.08144    6.17097    5.16106
      H1     9.02042    5.21076    5.12946
       H     8.78353    3.62713    0.04441
       O     8.44973    2.77025    0.33901
      H1     9.26516    2.29377    0.54315
       H    10.24115    7.44092    3.62941
       O    11.10892    7.80380    3.38663
      H1    11.70992    7.43050    4.04862
       H     3.09523    3.41360    2.76356
       O     3.80142    2.84879    3.15474
      H1     4.31482    3.53605    3.61098
       H    10.68757    1.94112    4.54018
       O    11.09735    1.17782    4.04860
      H1    10.49206    0.47041    4.25336
       H     4.34650    3.31347    5.92464
       O     3.84805    2.65296    6.44046
      H1     3.25439    3.20297    6.98959
       H     6.30254    2.55061    1.48008
       O     5.60460    2.95746    0.96097
      H1     4.84377    2.97488    1.54205
       H     8.86383   -0.43069   -0.45491
       O     8.62358   -0.87632    0.35483
      H1     8.03277   -0.27420    0.81846
       H    11.16997    5.40679    1.67426
       O    10.93540    6.15354    1.07547
      H1    10.99895    6.93639    1.65284
       H     7.83221   -0.52742    2.53103
       O     7.05216   -0.05883    2.25717
      H1     6.50478   -0.80520    1.99692
       H     8.58380    6.14343   -0.96805
       O     9.20635    5.40498   -0.83638
      H1     9.73816    5.67103   -0.09500
       H    11.21766    1.49458    2.12701
       O    11.01477    2.04358    1.31854
      H1    11.55558    2.84135    1.51768
       H     6.19515    5.45721    0.56540
       O     6.61820    5.82144    1.31539
      H1     6.88442    5.02742    1.78389
       H    10.88031    3.79689    5.89862
       O    10.23620    3.23213    5.53581
      H1     9.85109    2.76945    6.32215
       H     8.08046    3.26580    2.18071
       O     7.94038    3.66501    3.01985
      H1     8.28490    2.99909    3.63772
       H     7.64599    2.14569   -1.15563
       O     7.56807    1.60551   -1.94595
      H1     8.33872    1.05379   -1.96983
       H     6.49104    4.21231    3.95066
       O     5.69438    4.63518    4.24419
      H1     5.85757    5.60735    4.08465

