60
frame 2 | Written by MDAnalysis XYZWriter (release 2.4.3)
       H    -8.76940   11.65345   -1.65333
       O    -9.69073   11.49025   -1.41627
      H1    -9.60712   11.00368   -0.57628
       H   -16.52055    9.78784   -1.64418
       O   -16.28288   10.35372   -0.91461
      H1   -15.45915   10.78244   -1.19393
       H   -12.43626    8.58424    4.18418
       O   -13.04768    9.19351    4.62725
      H1   -13.86177    8.70415    4.75160
       H    -9.62352   15.54829    0.14292
       O   -10.23269   15.11651   -0.46014
      H1   -10.55788   14.35760    0.07646
       H   -14.68429    7.40477    3.00930
       O   -14.56023    7.77226    2.10498
      H1   -13.61353    7.56923    2.00014
       H   -13.91833   14.26546    1.11345
       O   -13.52703   14.02302    0.26660
      H1   -12.76778   13.48149    0.51376
       H   -11.73277   12.39417   -3.02911
       O   -12.36689   11.71778   -3.36805
      H1   -13.12147   11.85154   -2.77346
       H   -14.27001   11.10945    3.11443
       O   -14.33792   10.63495    2.25740
      H1   -14.28918    9.70885    2.50389
       H   -15.01756   12.96062   -2.12615
       O   -14.48871   12.30099   -1.60673
      H1   -14.43061   12.74172   -0.74225
       H   -15.64557   13.42129    1.87464
       O   -15.38166   14.31568    2.10787
      H1   -15.92304   14.51442    2.88075
       H    -9.12317    8.82913   -0.06162
       O    -9.49187    9.20207    0.76379
      H1   -10.14010    8.57759    1.08570
       H   -10.94543   12.54955    4.19289
       O   -11.73493   12.85219    3.72740
      H1   -11.57931   13.79202    3.65524
       H   -15.12397    7.88609    0.32316
       O   -15.64427    7.80072   -0.48605
      H1   -15.62688    8.68428   -0.82217
       H   -11.94445    9.57853    0.76801
       O   -12.40479   10.25176    0.20945
      H1   -13.07003   10.63324    0.82421
       H   -11.12418   12.77852    1.89553
       O   -11.13811   12.94803    0.94429
      H1   -11.54316   12.16563    0.58828
       H   -12.27460    9.79520   -2.68745
       O   -11.89703    8.99735   -2.29870
      H1   -11.78654    9.17344   -1.33571
       H   -11.22815    7.40364    2.31757
       O   -11.62494    7.80750    1.52209
      H1   -11.63608    7.06134    0.89910
       H    -8.46198    8.57393   -2.49476
       O    -8.92326    8.60316   -1.65054
      H1    -9.79570    8.89889   -1.92835
       H   -13.46846   10.89723    4.83861
       O   -13.63361   11.75207    5.28683
      H1   -13.14986   12.38439    4.74128
       H   -17.27393   12.10213    2.05638
       O   -16.60931   11.95317    1.33845
      H1   -16.46597   11.00489    1.29865

