60
frame 0 | Written by MDAnalysis XYZWriter (release 2.4.3)
       H    10.72778   -0.11249  -17.62749
       O    10.09328   -0.24398  -18.31027
      H1    10.57675   -0.35285  -19.11287
       H    17.05761    2.74783  -17.67569
       O    16.86916    2.79293  -16.71911
      H1    16.13929    2.21463  -16.65722
       H    12.10191    1.60243  -13.42165
       O    12.54649    2.40337  -13.15585
      H1    13.28112    2.13461  -12.62103
       H    11.56230   -1.79763  -15.77689
       O    11.91134   -1.86882  -16.66241
      H1    11.33476   -2.55407  -17.08965
       H    13.09148    1.51720  -17.42595
       O    12.96011    1.80672  -16.53528
      H1    12.00870    1.64978  -16.44677
       H     9.79384    1.40332  -15.50629
       O    10.57003    0.83992  -15.72186
      H1    10.49838    0.10868  -15.11476
       H    19.20350    4.86359  -15.53437
       O    19.29488    4.03914  -16.01625
      H1    18.39804    3.68969  -16.05541
       H     8.45471    4.78005  -17.89684
       O     7.87966    4.30871  -18.46366
      H1     8.43139    3.88195  -19.11556
       H    10.35134    4.39435  -13.19575
       O    10.77452    4.92471  -13.89690
      H1    11.49471    4.32571  -14.16572
       H    14.65665    4.75846  -16.49194
       O    15.40170    5.11191  -17.00412
      H1    15.99450    4.36747  -17.07206
       H    16.93556   -1.30697  -13.73111
       O    17.71134   -0.87696  -14.05631
      H1    17.48304   -0.57866  -14.92502
       H    12.46718   -0.84801  -14.34701
       O    11.60660   -1.26150  -14.17782
      H1    11.91284   -2.07358  -13.75907
       H    16.86379    1.90041  -12.77053
       O    16.85835    2.44392  -13.55071
      H1    16.36053    1.86557  -14.14993
       H    14.95267    6.76012  -17.93527
       O    14.47116    7.55778  -18.18618
      H1    15.16112    8.23025  -18.36668
       H    13.62588   -2.20149  -16.82453
       O    14.57435   -2.28348  -16.63077
      H1    14.64085   -3.18873  -16.31184
       H    17.76991   -0.15737  -17.45413
       O    17.22396   -0.67652  -16.84087
      H1    16.36164   -0.75626  -17.26033
       H     7.35081    2.06257  -15.74201
       O     7.98536    2.31346  -15.05519
      H1     7.59326    1.90137  -14.29146
       H    13.46142    4.69406  -14.19471
       O    13.17987    4.46534  -15.12919
      H1    13.12157    3.49260  -15.05501
       H    10.84930    4.78700  -16.86889
       O    11.52304    4.37250  -17.44641
      H1    12.24930    4.28471  -16.85085
       H    14.20901    1.13863  -15.62146
       O    14.92723    0.75514  -15.08616
      H1    14.93491   -0.17623  -15.27408

