60
frame 0 | Written by MDAnalysis XYZWriter (release 2.4.3)
       H   -13.18292    6.90435   14.51152
       O   -12.64234    6.59382   15.21758
      H1   -12.01998    7.35077   15.35960
       H   -13.89310   15.29508   17.11301
       O   -13.69449   14.75845   16.31860
      H1   -13.90506   13.87064   16.69167
       H   -13.38093    9.00154   12.63864
       O   -13.48951    9.96892   12.64331
      H1   -12.59424   10.16909   12.96753
       H   -10.26069    4.70283   15.29467
       O   -10.63346    4.73991   14.40590
      H1   -11.25604    5.48434   14.53528
       H    -9.90688    5.04611   18.12713
       O   -10.87646    5.11519   17.90087
      H1   -11.18322    4.32824   18.49287
       H   -15.30672    7.55780   13.44503
       O   -14.59775    6.96802   13.12815
      H1   -14.83044    7.01679   12.24455
       H   -14.16698    3.56413   16.53371
       O   -14.82352    4.14570   16.15180
      H1   -14.69764    4.96105   16.62545
       H   -19.12505    5.87421   17.57654
       O   -18.20573    6.07676   17.26852
      H1   -18.25146    6.98159   16.95438
       H   -15.22265    9.70481   14.17291
       O   -15.98662    9.09711   14.08885
      H1   -16.43836    9.57638   13.35763
       H   -13.42098    8.89069   17.90425
       O   -12.56984    9.40341   17.96110
      H1   -12.06080    8.73942   18.49627
       H   -10.51422   10.03161   14.01092
       O   -10.82057   10.49699   13.23187
      H1   -10.70458    9.82006   12.56176
       H    -8.87293   10.29126   17.23600
       O    -8.70221    9.42478   17.63047
      H1    -7.70921    9.39326   17.65570
       H   -10.40044    7.16900   18.79242
       O   -10.27314    7.92888   19.35595
      H1    -9.60892    8.41278   18.76630
       H   -14.75235   12.74141   18.70460
       O   -15.17186   12.99384   17.87013
      H1   -15.41736   13.93184   17.89914
       H   -15.49381    8.99978   19.37931
       O   -15.35491    8.70841   18.43982
      H1   -15.50282    7.73719   18.50961
       H   -13.21263    5.78584   18.28425
       O   -13.74205    6.28900   17.61922
      H1   -13.32075    6.32946   16.77443
       H   -10.02708    8.91915   16.12257
       O   -10.91833    9.09099   15.77032
      H1   -11.54137    9.17630   16.56465
       H   -16.66598   12.27466   17.49364
       O   -17.64075   12.40747   17.48308
      H1   -17.75857   12.12936   16.50387
       H    -8.56392    6.49673   17.02394
       O    -8.69772    7.14701   16.28566
      H1    -8.68586    7.96882   16.78845
       H   -17.06064    8.82976   15.78307
       O   -17.43317    8.69807   16.65260
      H1   -16.75581    9.07814   17.21516

