60
frame 2 | Written by MDAnalysis XYZWriter (release 2.4.3)
       H    16.44984   -0.31559  -10.39661
       O    16.49392    0.59447  -10.14342
      H1    15.69454    0.80338   -9.63817
       H    17.88383   -0.19765  -16.11621
       O    18.67509    0.23401  -15.77905
      H1    19.40482   -0.13169  -16.30497
       H    14.01411   -2.76170  -15.78688
       O    14.70434   -3.23788  -16.26283
      H1    14.23132   -3.64030  -16.98687
       H    18.26974   -4.72613  -17.75192
       O    18.36979   -5.69220  -17.94814
      H1    18.41259   -5.66175  -18.94890
       H    19.13995   -3.13479  -17.19523
       O    18.29547   -3.29449  -16.72979
      H1    17.75557   -2.52941  -16.91265
       H    15.62289   -3.33586  -14.53177
       O    16.04599   -3.46436  -13.67169
      H1    15.34037   -3.77938  -13.13227
       H    18.76172    3.42247  -15.38226
       O    18.54152    2.87427  -16.14885
      H1    18.64190    1.94624  -15.81722
       H    14.20404   -6.22653  -12.71383
       O    13.83793   -5.34544  -12.88696
      H1    14.00529   -4.89287  -12.04364
       H    14.05029   -2.53700  -11.45562
       O    14.60312   -3.28161  -11.18964
      H1    15.50011   -2.93200  -11.08323
       H    17.89224   -4.36122  -14.06880
       O    18.78215   -4.66334  -14.30181
      H1    18.96056   -4.13983  -15.08624
       H    18.72478    0.73344   -7.62043
       O    17.76534    0.71592   -7.74877
      H1    17.63051    0.48119   -8.67298
       H    16.69651   -1.42248  -18.15220
       O    16.39845   -1.22339  -17.25490
      H1    15.77596   -1.93298  -17.07629
       H    13.83483   -0.26738  -14.92550
       O    13.39348   -1.13241  -14.93083
      H1    13.30231   -1.38237  -14.02364
       H    16.39964    1.11409  -12.05029
       O    16.36111    1.58645  -12.87764
      H1    16.44441    0.90039  -13.57269
       H    17.35634    2.52597  -17.34977
       O    16.85527    2.04215  -18.03719
      H1    17.57271    1.48526  -18.39040
       H    17.04936   -6.02905  -11.70621
       O    17.62162   -6.44611  -12.38413
      H1    18.31070   -6.85353  -11.81200
       H    17.42073   -1.75867  -11.91529
       O    17.02116   -1.86392  -11.04750
      H1    17.73203   -2.06497  -10.50140
       H    18.35571   -0.77084  -14.27003
       O    18.13128   -1.38008  -13.55133
      H1    17.70003   -2.09692  -14.03715
       H    19.30633    2.70350  -12.70158
       O    18.57366    3.00416  -13.23811
      H1    17.84082    2.41048  -12.98951
       H    15.39216    1.68504  -15.55348
       O    15.45270    0.74525  -15.27881
      H1    15.89996    0.35977  -16.02940

