60
frame 2 | Written by MDAnalysis XYZWriter (release 2.4.3)
       H   -11.45124  -12.50236   17.79330
       O   -11.11962  -11.66992   17.38581
      H1   -10.85799  -11.95998   16.49943
       H    -9.36152  -10.87849   12.11350
       O   -10.18954  -10.91187   11.61534
      H1   -10.86462  -11.02747   12.25915
       H    -9.56870  -15.72203   15.37719
       O    -8.73230  -15.69641   14.92164
      H1    -8.51146  -14.74768   14.74858
       H    -8.15521   -6.56557   13.55599
       O    -8.73131   -6.50436   14.33634
      H1    -8.28042   -7.06409   15.00723
       H    -8.14650  -11.13543   10.72153
       O    -7.36619  -11.07471   10.15837
      H1    -6.97361  -11.92213   10.29456
       H    -3.95785  -11.69813   15.64062
       O    -3.23522  -12.30031   15.38504
      H1    -3.51752  -12.59645   14.50180
       H   -10.98830  -11.83557   14.26366
       O   -10.18380  -11.68689   14.80063
      H1   -10.05577  -10.73466   14.75513
       H    -5.96359  -13.89068   17.22419
       O    -6.24419  -13.00984   16.93696
      H1    -7.19307  -12.97888   17.23207
       H    -9.76316   -8.31276   14.45966
       O   -10.26734   -9.04182   14.06930
      H1   -10.60387   -8.68868   13.23716
       H    -4.55570  -11.62409   12.52019
       O    -4.26677  -12.51752   12.34739
      H1    -3.33293  -12.44658   12.10683
       H    -6.12366  -14.21785   10.81249
       O    -5.90408  -13.59316   10.09663
      H1    -5.26787  -13.05755   10.53938
       H    -5.89538  -15.65358   12.54130
       O    -6.66280  -15.22826   12.16787
      H1    -7.26974  -15.94701   11.89357
       H    -9.85425  -15.70654   12.93342
       O   -10.70082  -15.48150   12.54875
      H1   -11.01447  -14.74260   13.08082
       H    -3.71687   -9.32655   13.99355
       O    -2.77652   -9.34398   14.29006
      H1    -2.45157   -8.49380   13.92206
       H    -5.24437  -11.60509   17.69132
       O    -4.51874  -11.00834   17.92520
      H1    -4.75829  -10.09761   17.75534
       H    -7.03232  -14.00989   13.52121
       O    -7.27267  -13.42747   14.24642
      H1    -6.62920  -13.57836   14.95821
       H    -8.29807   -9.08868   16.58964
       O    -7.79268   -8.75447   15.82287
      H1    -7.15533   -8.15538   16.24544
       H    -9.43371  -11.88272   17.78713
       O    -8.75954  -12.45958   18.18234
      H1    -8.21073  -11.83504   18.66815
       H    -7.71744  -11.63599   13.73912
       O    -7.71740  -10.85545   13.16528
      H1    -7.93765  -10.15692   13.76371
       H    -5.39411   -9.71580   12.15452
       O    -5.24509   -9.72520   13.12942
      H1    -5.96954  -10.29154   13.46059

