60
frame 2 | Written by MDAnalysis XYZWriter (release 2.4.3)
       H     8.50458   -0.85387    4.75103
       O     9.21595   -0.91405    4.10676
      H1     9.91394   -1.35853    4.62890
       H     8.78222   -2.92259    7.29251
       O     9.26119   -3.18232    6.50250
      H1    10.09038   -2.70369    6.58439
       H     5.31477   -1.12280    9.97731
       O     5.94596   -1.30981   10.67744
      H1     5.41604   -1.30385   11.51143
       H     6.53229   -0.13840    5.53412
       O     7.14269   -0.67697    6.02827
      H1     6.90205   -1.57848    5.78509
       H     6.95643   -2.73531   11.40826
       O     7.44206   -3.41764   11.93426
      H1     6.94454   -4.21763   11.83523
       H     2.57786   -4.89433    8.66450
       O     3.33945   -4.64296    8.16471
      H1     4.09007   -5.08122    8.58855
       H     7.55957    0.50816   11.20723
       O     7.82426    1.13055   10.51736
      H1     6.97934    1.49150   10.21772
       H     2.19537   -1.00356    8.37248
       O     2.48479   -1.89719    8.57277
      H1     3.40777   -1.93632    8.29377
       H     7.92549   -2.61446    9.23535
       O     7.53294   -3.04849    8.43757
      H1     6.64490   -2.66945    8.40401
       H     7.12340   -3.57374    4.62994
       O     6.47660   -2.93521    4.97466
      H1     6.10401   -2.68844    4.10011
       H     6.41841   -5.94237   10.90462
       O     6.54034   -6.16621   11.82786
      H1     5.69949   -6.55413   12.06633
       H    10.91066   -2.54602    9.32893
       O    11.54085   -2.67371    8.60901
      H1    12.39933   -2.62822    9.07133
       H     5.72106   -5.89208    8.37715
       O     5.98087   -5.35100    9.14947
      H1     6.65655   -4.75944    8.80536
       H     5.23976    1.89206    9.95935
       O     5.38625    1.57776    9.05194
      H1     4.80566    2.15365    8.52918
       H     4.84390   -3.62089    5.57350
       O     4.21847   -4.35377    5.52597
      H1     3.81675   -4.34200    6.41023
       H     8.07909    0.72225    7.32951
       O     8.75659    1.36721    7.59843
      H1     8.53251    1.56046    8.51493
       H     5.10128    0.00091    8.02630
       O     5.06592   -0.95634    8.03475
      H1     5.71422   -1.16575    7.31639
       H     4.85481   -6.21235    6.34900
       O     5.23539   -6.84496    6.96306
      H1     6.12952   -7.03101    6.61465
       H     9.61879   -4.85952    6.88722
       O     9.93956   -5.75516    6.99409
      H1    10.52541   -5.68620    7.74688
       H     9.71773   -1.34831   10.82505
       O     9.34648   -2.06495   10.31815
      H1     8.88860   -2.53643   11.02199

