60
frame 4 | Written by MDAnalysis XYZWriter (release 2.4.3)
       H    11.73496   -1.98249    0.03945
       O    11.65942   -2.10233   -0.96491
      H1    12.54283   -2.12559   -1.28691
       H    13.07414   -5.04824    3.93908
       O    13.79696   -5.25087    4.67174
      H1    14.47967   -5.73427    4.20194
       H    16.25074   -5.24590   -5.24662
       O    16.51487   -5.04990   -4.32876
      H1    15.87765   -5.24620   -3.68283
       H    14.29634   -2.44115   -2.98799
       O    14.08123   -3.03037   -2.21927
      H1    13.94479   -3.93402   -2.51395
       H    18.54663   -6.52592   -0.92651
       O    17.89529   -5.80252   -0.84596
      H1    18.34244   -5.06222   -0.50265
       H    16.56152   -2.00632   -1.55720
       O    16.57735   -1.54685   -2.39775
      H1    16.64806   -0.57156   -2.21091
       H    11.93914   -3.94383   -0.56647
       O    11.68908   -4.89664   -0.46132
      H1    12.30606   -5.40243   -1.08846
       H    14.41360    0.24226    0.42161
       O    14.00388    0.99753   -0.02959
      H1    14.72007    1.50015   -0.42739
       H    15.79664    0.81208    3.37138
       O    16.48622    0.36476    2.87816
      H1    15.96461   -0.25757    2.30071
       H    12.13977   -1.96220    2.29713
       O    11.39168   -2.06539    1.70227
      H1    11.18590   -3.01984    1.97644
       H    15.89711   -3.82992    0.33304
       O    14.91090   -3.84829    0.25141
      H1    14.84787   -3.45317   -0.65107
       H    19.28086   -3.59049    2.86876
       O    18.32909   -3.59789    2.68381
      H1    17.92275   -2.85598    3.21503
       H    11.62531   -5.14811    2.24143
       O    11.59026   -4.52220    2.98383
      H1    10.74509   -4.68674    3.47472
       H    13.72550   -1.77903    4.49794
       O    13.23818   -1.41769    3.72211
      H1    13.01151   -0.48348    3.87333
       H    14.58342   -6.78222    1.16853
       O    14.08759   -6.16766    1.76445
      H1    14.24533   -5.36182    1.22502
       H    14.97807   -1.98709    0.90136
       O    14.62893   -1.19278    1.27694
      H1    14.33639   -1.41760    2.14070
       H    18.55175   -2.44444   -0.13715
       O    17.81897   -3.00890    0.14245
      H1    18.15112   -3.06363    1.08105
       H    13.29876   -7.08721   -2.75242
       O    13.30968   -6.11742   -2.72434
      H1    12.63578   -5.84743   -3.36809
       H    12.44895   -7.16945    1.54923
       O    11.73826   -7.81646    1.82115
      H1    12.16264   -8.63861    1.51995
       H    16.30624   -6.79087   -0.44839
       O    15.82658   -7.54160   -0.16471
      H1    16.42383   -7.98350    0.44013

