60
frame 2 | Written by MDAnalysis XYZWriter (release 2.4.3)
       H     3.38388   -0.37984   15.43599
       O     3.88135   -1.16715   15.16366
      H1     3.74809   -1.14659   14.17590
       H     6.07379   -1.08021   16.90116
       O     6.73611   -1.77667   16.89452
      H1     6.79515   -1.98158   15.95303
       H    14.17174   -1.29431   18.54479
       O    13.99615   -2.23356   18.37444
      H1    13.14411   -2.42114   18.78621
       H     9.21417    0.48616   13.84323
       O    10.11417    0.71466   14.01579
      H1    10.08573    1.66553   13.90156
       H    13.15653   -0.74201   16.50305
       O    12.99800   -0.60200   15.56396
      H1    12.11634   -0.98550   15.42864
       H     6.40203    3.09263   15.63025
       O     6.36298    2.38493   16.28049
      H1     5.88606    2.79193   16.98700
       H     4.17205   -5.18263   16.72321
       O     4.73263   -4.59962   16.21618
      H1     5.55358   -5.06638   16.19889
       H     8.23431   -1.09079   17.52349
       O     9.13265   -0.80157   17.65988
      H1     9.54881   -1.29508   16.96173
       H     5.33870    0.30292   14.07737
       O     5.79823    1.15352   14.01120
      H1     5.83680    1.44816   14.94048
       H    10.30152   -2.95176   19.22307
       O    10.76161   -3.60266   18.66953
      H1    10.03059   -4.11020   18.33204
       H     4.40297   -3.57246   17.51259
       O     4.02744   -3.01885   18.22685
      H1     3.22445   -2.74571   17.85334
       H     5.38641   -0.13589   18.88793
       O     4.64822   -0.42059   18.33979
      H1     4.74708   -1.37909   18.30753
       H    10.19306   -0.80120   14.69248
       O    10.37429   -1.60930   15.20962
      H1    10.43260   -2.27147   14.48303
       H     7.65387   -1.13001   13.53508
       O     7.78578   -0.19992   13.23715
      H1     7.06969    0.29099   13.64330
       H     7.32703   -3.12341   17.85123
       O     7.56168   -3.89061   18.41333
      H1     7.60822   -4.68826   17.85666
       H     7.55399   -5.65423   14.94599
       O     7.37553   -5.07770   15.68818
      H1     7.60868   -4.23192   15.32177
       H     7.67136   -3.19082   13.70039
       O     7.70832   -2.64558   14.52444
      H1     8.67612   -2.56626   14.66415
       H    11.19228    4.11163   17.08634
       O    10.28301    4.21826   16.82119
      H1     9.88292    3.35632   17.08617
       H     9.18171   -7.14596   17.15992
       O     9.15174   -6.19741   17.30441
      H1     8.55848   -5.91997   16.60897
       H     8.00307    1.97700   17.10404
       O     8.89237    1.81933   17.42149
      H1     9.03196    0.91175   17.22695

