60
frame 5 | Written by MDAnalysis XYZWriter (release 2.4.3)
       H   -16.14011  -17.19224   16.86378
       O   -15.66140  -17.51878   16.06817
      H1   -16.26221  -18.12672   15.62759
       H   -11.03493  -14.06310   14.27131
       O   -11.56136  -14.58371   13.68247
      H1   -12.38783  -14.12787   13.44382
       H   -17.25968   -9.77413   11.46150
       O   -17.46605  -10.71112   11.37689
      H1   -18.26527  -10.82291   11.88498
       H   -13.62266  -11.15197   15.23419
       O   -13.23489  -11.65199   15.99253
      H1   -12.69855  -10.99978   16.52174
       H   -14.85929  -12.32025   16.93439
       O   -15.69139  -12.80582   17.01345
      H1   -15.57254  -13.63097   16.49461
       H   -17.75952   -9.15695   14.06959
       O   -17.28392   -9.76732   14.64722
      H1   -16.36521   -9.68197   14.27343
       H   -18.72691  -15.69805   11.84048
       O   -18.51488  -15.58139   12.77216
      H1   -19.17750  -14.91037   13.08698
       H   -14.91288  -13.67666    9.24379
       O   -15.75343  -14.17659    9.29477
      H1   -15.83495  -14.55105   10.22599
       H   -14.96652  -12.23671   12.67412
       O   -14.95975  -11.36801   12.25087
      H1   -15.79066  -11.28752   11.75487
       H   -14.71814  -13.91562   12.61302
       O   -14.17931  -13.66281   13.34705
      H1   -14.59077  -14.06803   14.11082
       H   -18.63301   -9.42289   16.01275
       O   -19.37752   -9.47900   16.61681
      H1   -19.73837  -10.36694   16.71240
       H   -15.35511   -7.78281   17.92342
       O   -15.67974   -8.55002   17.45034
      H1   -15.11735   -8.79234   16.71197
       H   -17.23289  -13.33381    9.17994
       O   -17.96426  -12.68522    9.08701
      H1   -17.71385  -11.96068    9.71859
       H   -18.21140   -9.97560   18.69086
       O   -17.47771   -9.79981   19.27938
      H1   -16.86737   -9.37242   18.72224
       H   -16.62770  -15.55775   18.84617
       O   -16.87985  -16.34409   18.30629
      H1   -17.75071  -16.16457   17.93627
       H   -18.96830  -17.39403   12.71104
       O   -19.73388  -18.02821   12.62413
      H1   -19.70772  -18.68450   13.31250
       H   -17.14288  -13.11594   15.07045
       O   -17.95015  -12.66549   14.73345
      H1   -17.67850  -11.79345   14.63793
       H   -16.94781  -14.98335   12.38054
       O   -16.11337  -15.08046   11.95150
      H1   -15.88134  -16.04890   11.98129
       H   -16.60398  -15.25158   14.47604
       O   -15.97355  -14.91185   15.11632
      H1   -15.64026  -15.75557   15.51805
       H   -14.26749  -10.19697   13.57000
       O   -14.09780   -9.71679   14.40735
      H1   -13.77197   -8.86536   14.02437

