60
frame 2 | Written by MDAnalysis XYZWriter (release 2.4.3)
       H    -6.02780    3.16934   17.59977
       O    -6.10064    4.11493   17.82018
      H1    -6.02674    4.56925   16.95043
       H    -5.36548    3.90884   14.82120
       O    -5.84848    4.75275   14.78122
      H1    -6.74830    4.46402   14.45170
       H    -5.89036    9.95809   14.96267
       O    -5.53383   10.84602   14.86596
      H1    -5.10079   10.84261   13.99885
       H   -11.34326    9.68930   17.80046
       O   -10.58420    9.63012   17.23059
      H1   -10.39158   10.53253   16.93484
       H    -6.42778    7.09155   18.36773
       O    -7.27989    6.62929   18.22311
      H1    -7.02068    5.69970   18.30678
       H    -5.97961   10.92612   18.13416
       O    -6.78670   10.61537   18.58351
      H1    -7.49339   11.15109   18.21121
       H    -8.22015    1.79485   17.06670
       O    -9.11845    1.80935   17.42356
      H1    -9.25694    0.86455   17.53762
       H    -3.43217    8.92945   18.21747
       O    -2.67158    9.45219   17.99755
      H1    -3.00588   10.27692   17.60216
       H    -4.33949    4.41492   18.31351
       O    -3.58583    4.98192   18.53670
      H1    -3.60829    5.03807   19.51162
       H    -3.74510    6.27188   16.71170
       O    -4.44589    6.84064   16.37289
      H1    -4.95107    6.29236   15.73687
       H   -10.69542    4.40306   18.57622
       O   -11.41023    4.48402   17.90108
      H1   -11.01191    4.17568   17.07829
       H   -10.24309    8.64759   15.52371
       O   -10.31222    8.15638   14.70009
      H1   -11.24415    8.23318   14.51370
       H    -3.07147    3.05359   18.33462
       O    -3.19026    2.10965   18.18437
      H1    -3.93826    1.89788   18.77777
       H    -9.47785    3.23395   16.35468
       O    -9.86239    3.83232   15.71805
      H1    -9.42447    4.66431   15.89212
       H    -6.24024    7.11334   13.52517
       O    -6.26115    7.08953   12.55106
      H1    -7.20771    7.13684   12.40420
       H    -9.23651    7.07046   15.77744
       O    -8.65717    6.33304   16.02374
      H1    -8.38594    6.51105   16.93322
       H    -3.07939    7.90628   15.20457
       O    -2.71782    7.78453   14.34751
      H1    -2.80777    6.80943   14.25388
       H    -7.01782    7.68309   15.82705
       O    -6.43626    8.36548   15.43150
      H1    -5.66430    8.30269   15.97297
       H    -1.64944    4.35926   15.36060
       O    -2.54550    4.51670   15.01012
      H1    -2.45776    4.67753   14.06485
       H    -4.79326   12.19571   17.51095
       O    -4.64734   11.22932   17.39604
      H1    -4.86811   11.10334   16.44489

