60
frame 2 | Written by MDAnalysis XYZWriter (release 2.4.3)
       H     9.85666   -8.53467  -10.43143
       O    10.76163   -8.73683  -10.68901
      H1    10.74109   -8.91482  -11.62720
       H    10.41850   -3.54321  -11.79388
       O    10.73794   -2.93356  -11.13380
      H1    11.06369   -3.52631  -10.42949
       H    14.01411   -2.76170  -15.78688
       O    14.70434   -3.23788  -16.26283
      H1    14.23132   -3.64030  -16.98687
       H    15.62289   -3.33586  -14.53177
       O    16.04599   -3.46436  -13.67169
      H1    15.34037   -3.77938  -13.13227
       H    17.30406   -9.00966  -13.77317
       O    17.04144   -8.22646  -14.26187
      H1    17.35186   -7.48931  -13.72789
       H    12.87889   -5.58848  -14.43898
       O    12.18028   -5.73337  -15.11125
      H1    11.39110   -5.39205  -14.68500
       H    14.20404   -6.22653  -12.71383
       O    13.83793   -5.34544  -12.88696
      H1    14.00529   -4.89287  -12.04364
       H    11.86603   -7.40875  -13.15901
       O    10.95088   -7.73559  -13.26517
      H1    11.03033   -8.32593  -14.03935
       H    14.05029   -2.53700  -11.45562
       O    14.60312   -3.28161  -11.18964
      H1    15.50011   -2.93200  -11.08323
       H    17.89224   -4.36122  -14.06880
       O    18.78215   -4.66334  -14.30181
      H1    18.96056   -4.13983  -15.08624
       H    12.14061   -4.87387  -16.70480
       O    12.59291   -4.71346  -17.56050
      H1    11.86951   -4.41905  -18.16815
       H    10.86825   -7.08831  -10.56234
       O    10.78522   -6.10713  -10.65691
      H1     9.96269   -5.88331  -10.16197
       H    17.04936   -6.02905  -11.70621
       O    17.62162   -6.44611  -12.38413
      H1    18.31070   -6.85353  -11.81200
       H    13.32729   -9.52952  -14.77913
       O    13.56194  -10.05922  -14.02432
      H1    14.09487   -9.38978  -13.51138
       H    15.50912   -7.15378   -9.80912
       O    15.73199   -6.21812   -9.76530
      H1    14.92791   -5.78753   -9.40676
       H    15.02061   -8.33005  -11.88645
       O    14.81046   -8.06492  -12.78097
      H1    15.61300   -8.11152  -13.33327
       H    14.40230   -3.76560   -9.57150
       O    14.40518   -4.14411   -8.66440
      H1    15.36814   -4.21073   -8.48241
       H     9.47828   -5.27570  -13.77577
       O    10.05765   -4.64480  -13.32714
      H1    10.58264   -5.17471  -12.69297
       H    12.38230   -7.44550  -15.64726
       O    12.40313   -8.33899  -15.97203
      H1    12.27615   -8.21707  -16.92801
       H    14.78282   -9.57457   -9.84654
       O    15.35619   -8.85076  -10.11130
      H1    16.25464   -9.15968   -9.85673

