60
frame 2 | Written by MDAnalysis XYZWriter (release 2.4.3)
       H     0.54722  -13.45247    8.85318
       O     1.38942  -13.51564    9.30406
      H1     1.65078  -14.44780    9.24872
       H     3.74241  -13.25828   13.87574
       O     4.40704  -12.61012   14.19002
      H1     5.18119  -13.11444   14.44833
       H     1.68343  -14.44687   14.22175
       O     2.38450  -14.30735   13.57763
      H1     1.84293  -13.73664   13.03250
       H     3.50731  -15.41495    9.70917
       O     2.66881  -15.85843    9.50946
      H1     2.68043  -15.98386    8.53809
       H     1.14400  -12.84537   10.94467
       O     0.92358  -12.71978   11.86653
      H1     0.76238  -11.77862   11.82802
       H     5.36954  -11.16578    7.52674
       O     6.08358  -10.60259    7.18360
      H1     6.00235  -10.54118    6.25464
       H     4.44377  -11.26239   13.03614
       O     4.41051  -10.47608   12.47732
      H1     4.34126  -10.88813   11.59079
       H     2.69848  -10.95934    8.55070
       O     3.20367  -11.63938    8.08793
      H1     2.56812  -12.36504    7.92545
       H     2.84269  -17.61713    9.73892
       O     3.08371  -18.54828    9.99446
      H1     2.20238  -18.94252   10.09968
       H     7.37004  -15.80478   13.90233
       O     7.99044  -15.16013   13.54884
      H1     7.43456  -14.38601   13.31822
       H     3.65104  -14.36967    6.66553
       O     2.76935  -14.04107    6.42589
      H1     2.55496  -14.41379    5.58636
       H     4.59846   -9.16521    8.82380
       O     4.69385   -8.99742    9.74856
      H1     5.67810   -9.07970    9.85012
       H     7.32850  -11.62120   12.38430
       O     7.71802  -10.77495   12.71696
      H1     7.01384  -10.41642   13.28577
       H     8.27006  -10.87749    8.59488
       O     7.91145  -11.71493    8.88632
      H1     7.09861  -11.83509    8.38727
       H     5.44056  -15.94363    9.94500
       O     5.41842  -15.05681    9.55879
      H1     5.93303  -15.09586    8.74268
       H     4.72509  -16.99219   11.80364
       O     4.96297  -17.22211   10.88011
      H1     4.54028  -18.06926   10.73483
       H     3.72863  -12.41224    9.72858
       O     4.12536  -12.78691   10.52850
      H1     4.57380  -13.59701   10.20782
       H     6.94819  -13.80065   10.98281
       O     6.89311  -13.22423   11.75723
      H1     5.95316  -12.97956   11.82059
       H     5.86789  -15.14378    6.39237
       O     5.82965  -14.37439    6.97380
      H1     6.55150  -13.80049    6.74053
       H     1.68931  -15.58592   12.52533
       O     1.16678  -16.08018   11.90104
      H1     1.70332  -16.10415   11.10935

