60
frame 2 | Written by MDAnalysis XYZWriter (release 2.4.3)
       H    -0.01883    0.29971    5.36175
       O    -0.00109    0.80630    6.18905
      H1     0.95123    0.82599    6.40844
       H    -2.32757    0.48633    3.14820
       O    -2.36916    0.46748    4.09174
      H1    -3.27214    0.76569    4.36641
       H    -3.19673   -0.64619    6.48130
       O    -3.99978   -0.71553    6.99831
      H1    -4.52021   -1.39992    6.53401
       H    -0.78042    3.24108    2.93651
       O    -0.47073    3.48870    2.03524
      H1    -1.18024    4.04189    1.68967
       H    -5.71088   -1.09358    3.17655
       O    -5.01283   -0.47154    3.41218
      H1    -4.26063   -1.05339    3.63110
       H    -5.10448    3.50807    3.41700
       O    -5.08693    3.89114    2.53227
      H1    -5.04383    3.12436    1.95712
       H    -3.19475    4.10573    5.69781
       O    -3.58325    4.93781    5.93426
      H1    -3.38164    5.57837    5.21196
       H    -0.79280    2.24665    5.48116
       O    -1.34849    2.77376    4.89887
      H1    -1.94582    2.07991    4.52836
       H    -0.00572   -1.68000    5.06701
       O     0.72632   -1.35530    4.49439
      H1     1.48367   -1.31969    5.06925
       H     3.06070    0.22582    3.03682
       O     2.35307   -0.12907    2.48985
      H1     1.61277   -0.25090    3.09648
       H    -2.75636    3.16600    1.25993
       O    -2.89869    3.99361    0.80412
      H1    -3.74149    4.26363    1.16234
       H    -2.41673   -0.60891    0.73086
       O    -2.35977    0.30491    1.00599
      H1    -3.27255    0.63136    0.88642
       H     0.32057   -2.49951    3.08641
       O     0.07144   -2.90622    2.24399
      H1     0.83855   -3.49202    2.11712
       H    -1.21618   -2.68966    1.04807
       O    -1.90347   -2.39681    0.49652
      H1    -2.12194   -3.18149   -0.06369
       H    -4.66466    1.70121    0.02280
       O    -4.72630    1.64568    1.00453
      H1    -5.58404    1.20204    1.07303
       H    -1.23308   -0.92015    6.53972
       O    -1.24393   -1.77982    6.07614
      H1    -0.94127   -2.34636    6.80335
       H    -5.65424    1.32868    4.38670
       O    -5.36575    2.17918    4.66775
      H1    -5.82737    2.30415    5.49099
       H    -5.08527   -3.79927    2.44691
       O    -4.68759   -3.29335    1.72844
      H1    -3.90608   -2.85971    2.12005
       H    -3.56261   -3.07859    4.59665
       O    -2.99620   -2.42632    4.11756
      H1    -2.37059   -2.12118    4.76169
       H    -1.00385    0.08965   -0.35733
       O    -0.30010   -0.05723   -0.96000
      H1    -0.68022   -0.62586   -1.63001

