60
frame 0 | Written by MDAnalysis XYZWriter (release 2.4.3)
       H     4.68965    4.50012  -18.98935
       O     5.42904    5.06345  -18.63200
      H1     6.22155    4.52768  -18.68408
       H     8.53552    5.96490  -15.47809
       O     8.95597    6.06222  -16.35772
      H1     9.80346    6.52635  -16.18179
       H     3.54555    3.25735  -14.79692
       O     2.80899    3.88529  -14.88711
      H1     2.50824    4.01403  -13.99580
       H     2.75529    3.36639  -18.73359
       O     2.71508    4.27618  -19.03765
      H1     2.50377    4.74769  -18.19811
       H     4.97355    8.91122  -14.72204
       O     5.46964    8.37127  -15.35977
      H1     4.87632    7.63008  -15.55281
       H     2.18363    0.36428  -18.36046
       O     2.57140    1.23735  -18.37501
      H1     3.49568    1.05914  -18.33019
       H     8.45471    4.78005  -17.89684
       O     7.87966    4.30871  -18.46366
      H1     8.43139    3.88195  -19.11556
       H    -0.90412    4.63006  -17.16649
       O    -0.79108    4.22496  -18.03464
      H1    -0.13931    3.52746  -17.86081
       H     1.85088    2.24920  -17.24133
       O     1.16267    2.74211  -16.74319
      H1     1.61960    3.34410  -16.16453
       H     8.51209    7.50791  -17.43706
       O     8.31428    8.20261  -18.09414
      H1     8.47411    7.78851  -18.93584
       H     7.07300    4.18042  -14.72603
       O     6.90998    5.09724  -14.54954
      H1     6.21589    5.34966  -15.16858
       H     1.33503    8.41990  -18.81924
       O     2.15166    8.40484  -18.30541
      H1     2.83660    8.13860  -18.94783
       H     5.36534   -0.84705  -18.39286
       O     4.41262   -0.87909  -18.38401
      H1     4.12035   -1.77806  -18.60080
       H     1.44854    7.94067  -14.34934
       O     2.04321    7.18851  -14.51289
      H1     1.69921    6.76340  -15.30947
       H     2.94239    6.13530  -16.94008
       O     2.00483    5.95867  -17.01530
      H1     1.70096    6.80225  -17.38549
       H     5.28342    9.52547  -17.29537
       O     5.80725    9.51469  -18.10925
      H1     6.62532    9.05234  -17.87886
       H     6.88793    2.56868  -17.99746
       O     6.51063    1.84292  -17.46048
      H1     6.78452    1.03412  -17.93259
       H     7.35081    2.06257  -15.74201
       O     7.98536    2.31346  -15.05519
      H1     7.59326    1.90137  -14.29146
       H     3.89134    5.21327  -15.87961
       O     4.46916    5.87872  -16.29639
      H1     4.80106    5.46068  -17.09589
       H     5.07413    1.99939  -16.43761
       O     4.44832    1.82593  -15.74460
      H1     4.52616    0.84214  -15.64900

