60
frame 2 | Written by MDAnalysis XYZWriter (release 2.4.3)
       H   -15.39657    8.82804  -10.57033
       O   -15.66210    8.99381  -11.50607
      H1   -15.04254    9.60081  -11.93311
       H   -14.89456    5.75003  -12.95487
       O   -14.99912    6.63761  -13.27428
      H1   -15.07608    7.20065  -12.49318
       H   -14.50476    9.11777  -15.82666
       O   -14.65985    8.17432  -15.70768
      H1   -14.40419    8.01098  -14.79863
       H   -17.91831    5.52842   -9.47397
       O   -17.46341    5.93938   -8.73789
      H1   -17.89338    5.55066   -7.94707
       H   -12.92764    7.33387  -12.49937
       O   -12.21657    7.36079  -13.16004
      H1   -11.50293    6.85859  -12.70824
       H   -17.28476    7.07913  -12.95454
       O   -18.25454    6.93542  -12.91795
      H1   -18.64863    7.70169  -12.49929
       H   -17.01464    4.05584   -8.81408
       O   -17.43928    3.17925   -8.80385
      H1   -16.98590    2.66318   -9.46619
       H   -17.90780   11.33904  -11.95005
       O   -16.95129   11.31482  -11.75809
      H1   -16.81884   10.36701  -11.55390
       H   -17.35504   10.26246  -17.69429
       O   -17.21045   11.07970  -17.21072
      H1   -17.48495   10.90324  -16.27515
       H   -15.41060    7.11196   -8.57364
       O   -14.72795    7.54370   -9.13992
      H1   -14.23340    8.15780   -8.55485
       H   -18.79029    6.23410  -14.61438
       O   -18.62331    5.59321  -15.30816
      H1   -17.74994    5.20084  -15.08325
       H   -14.44040   12.33853  -10.23717
       O   -15.12931   11.71578   -9.92174
      H1   -15.77703   11.62835  -10.63107
       H   -15.73170    4.24550  -15.53303
       O   -16.31399    4.16446  -14.75296
      H1   -15.85979    4.64463  -14.06050
       H   -16.73152    7.70051   -6.71810
       O   -17.40249    8.36188   -6.91991
      H1   -17.34021    8.44753   -7.88052
       H   -14.20045    3.67322  -12.22296
       O   -15.05612    4.10313  -12.28856
      H1   -15.69120    3.38974  -12.20508
       H   -14.17580   11.27419  -11.63135
       O   -13.65860   10.70315  -12.18896
      H1   -13.31584   11.21176  -12.95590
       H   -17.37835   10.69481  -13.90709
       O   -17.88392   11.13590  -14.60191
      H1   -18.73709   10.67667  -14.70697
       H   -15.94945    7.00243  -16.61650
       O   -16.55270    6.76127  -17.33640
      H1   -17.22366    6.24265  -16.88706
       H   -18.79872    8.71932   -9.06665
       O   -17.97975    8.62976   -9.54285
      H1   -17.71942    7.71786   -9.29116
       H   -19.18788    4.01174  -11.54304
       O   -18.79363    4.76201  -11.05766
      H1   -18.66413    5.41862  -11.76053

