60
frame 2 | Written by MDAnalysis XYZWriter (release 2.4.3)
       H    11.28107   14.68748  -18.09596
       O    12.14810   14.62524  -18.50024
      H1    11.98319   14.16961  -19.32849
       H    13.67472   19.26081  -14.45226
       O    13.58303   18.62421  -13.77338
      H1    13.45258   17.81036  -14.30428
       H     9.10936   14.19693  -18.11784
       O     9.82125   14.31918  -17.43047
      H1     9.87733   13.42875  -17.09956
       H     8.94915   19.14387  -16.58850
       O     9.62304   19.15670  -17.24325
      H1    10.13181   18.38925  -17.02319
       H     9.97707   17.11048  -15.20947
       O    10.45527   16.77842  -15.99427
      H1     9.85476   16.03041  -16.25502
       H    11.26627   13.73754  -11.48688
       O    10.74163   12.98868  -11.80269
      H1    11.36512   12.25284  -11.88905
       H     7.06254   12.99350  -18.18791
       O     7.64685   12.27826  -17.95757
      H1     7.42965   11.65645  -18.64443
       H    16.10723   18.10717  -17.58152
       O    15.71791   18.31179  -18.41568
      H1    14.93043   17.76392  -18.44178
       H    12.16366   11.88248  -16.70169
       O    11.20678   11.71217  -16.72313
      H1    11.01847   11.65550  -17.65830
       H     7.85514   11.77856  -16.19902
       O     8.03295   11.74366  -15.23489
      H1     8.94658   12.07652  -15.21614
       H    12.47786   16.52665  -15.64521
       O    13.28860   16.33521  -15.07133
      H1    13.85871   15.90802  -15.72118
       H     7.91891   15.15832  -11.92736
       O     8.11094   15.96151  -11.41426
      H1     7.85790   15.72156  -10.53561
       H    10.44348   14.37825  -14.54151
       O    10.07541   13.53279  -14.28952
      H1    10.48966   13.38596  -13.41580
       H     6.05041   17.12357  -17.75873
       O     5.78085   16.41673  -17.17934
      H1     6.57611   16.09530  -16.72716
       H    11.01899   16.57736  -12.03059
       O    10.25575   17.05414  -12.36317
      H1     9.46956   16.61715  -11.94342
       H    15.12719   14.78425  -17.62336
       O    14.37276   14.57168  -17.01272
      H1    13.67494   14.36029  -17.65301
       H     6.73624   13.34088  -12.90567
       O     7.45134   13.93255  -13.22546
      H1     8.13863   13.29618  -13.48087
       H    14.41137   12.87134  -17.08403
       O    14.33305   11.90151  -16.95969
      H1    14.71703   11.70855  -16.08182
       H     7.50235   16.86064  -15.13448
       O     7.71204   15.95621  -15.40300
      H1     7.47290   15.44744  -14.59595
       H    13.85589   13.28037  -14.24438
       O    13.60781   13.91815  -13.53727
      H1    13.46381   14.74537  -13.97681

