60
frame 2 | Written by MDAnalysis XYZWriter (release 2.4.3)
       H    -4.93295   -1.71594  -17.49081
       O    -5.65270   -2.13555  -16.97743
      H1    -5.36003   -3.04902  -16.93809
       H    -0.47346   -2.96147  -13.70369
       O    -0.94339   -2.13249  -13.57261
      H1    -0.41007   -1.72256  -12.87741
       H    -2.39568   -9.12663  -16.86491
       O    -1.63197   -8.79667  -16.34543
      H1    -1.05726   -9.56749  -16.30722
       H     3.75928   -0.42297  -17.91621
       O     3.12004   -0.35191  -17.21428
      H1     2.68134   -1.21600  -17.26137
       H    -0.19973   -7.85022  -17.04995
       O     0.70064   -7.60893  -17.20419
      H1     1.05381   -7.71981  -16.30787
       H     0.32645   -1.97359  -16.88837
       O     1.15005   -2.32352  -17.20076
      H1     1.03066   -3.27740  -17.14375
       H    -3.58752   -2.29896  -15.35192
       O    -3.32974   -1.55351  -14.79035
      H1    -2.74793   -2.06620  -14.19623
       H    -1.92806    1.72585  -18.53834
       O    -1.53096    1.48820  -17.70626
      H1    -0.61356    1.37636  -17.92393
       H     1.36124   -6.09306  -17.73052
       O     1.37417   -5.16487  -17.94670
      H1     2.26488   -4.88115  -17.74023
       H     0.17003    0.03433  -15.30587
       O     0.96266    0.47206  -14.97456
      H1     1.51024    0.63618  -15.78473
       H    -3.30783   -1.43261  -19.05963
       O    -3.45908   -1.62066  -18.12831
      H1    -2.61027   -1.47684  -17.66743
       H    -0.85364   -5.12739  -13.33534
       O    -1.43862   -5.77566  -13.70008
      H1    -0.89130   -6.55785  -13.65342
       H    -3.17346   -5.11752  -13.60693
       O    -3.84556   -4.61693  -13.09852
      H1    -4.65519   -4.78073  -13.58428
       H    -0.77505   -5.14122  -15.52588
       O    -0.94222   -4.72749  -16.36496
      H1    -0.40820   -5.20010  -16.99676
       H    -7.49265   -3.57750  -18.56146
       O    -8.03220   -2.87552  -18.15755
      H1    -7.38201   -2.36120  -17.64129
       H    -2.21023   -5.69180  -19.47227
       O    -2.21050   -6.61388  -19.19062
      H1    -2.48836   -6.55510  -18.27606
       H    -3.45940   -6.99727  -16.18740
       O    -3.38539   -6.17163  -16.69176
      H1    -2.67145   -5.69439  -16.19961
       H    -1.80001   -1.28750  -15.82855
       O    -1.12360   -0.96545  -16.41813
      H1    -1.51475   -0.20908  -16.90796
       H    -1.25690   -3.33163  -19.34289
       O    -1.99058   -3.93752  -19.25202
      H1    -2.14200   -3.85221  -18.31853
       H    -5.96000   -4.89925  -17.20699
       O    -5.87413   -4.86635  -16.26241
      H1    -5.13776   -5.49074  -16.08045

