60
frame 2 | Written by MDAnalysis XYZWriter (release 2.4.3)
       H     3.68224    2.55479   18.41145
       O     4.43447    3.12138   18.14978
      H1     4.77277    3.47846   18.99051
       H     4.30576    6.48729   15.35267
       O     3.99937    5.82083   14.71586
      H1     4.72623    5.16871   14.60399
       H     2.93516    1.43627   15.51496
       O     2.36154    0.74607   15.83112
      H1     2.34747    0.89896   16.76880
       H     1.95341    1.14202   19.25401
       O     2.46514    1.15442   18.42558
      H1     3.24718    0.65049   18.64860
       H    -4.33949    4.41492   18.31351
       O    -3.58583    4.98192   18.53670
      H1    -3.60829    5.03807   19.51162
       H    -0.75924    2.19100   10.67242
       O    -0.14979    2.06396   11.41057
      H1    -0.21458    2.90828   11.86977
       H    -3.74510    6.27188   16.71170
       O    -4.44589    6.84064   16.37289
      H1    -4.95107    6.29236   15.73687
       H    -0.62311    7.42210   14.81785
       O    -0.07948    6.74876   15.24007
      H1     0.60333    7.21523   15.74353
       H    -1.20987    1.15247   17.22072
       O    -0.62793    0.40281   17.18077
      H1    -0.51701    0.26479   16.23524
       H     2.19975    5.65282   16.24626
       O     2.13117    6.37919   16.85835
      H1     2.02075    5.95119   17.69683
       H     4.08352    2.87198   15.98575
       O     3.64248    2.86387   15.12128
      H1     3.39988    3.81303   14.97910
       H    -0.54950    5.67192   12.59631
       O     0.32669    5.50960   12.20581
      H1     0.80610    6.29569   12.53533
       H    -3.07147    3.05359   18.33462
       O    -3.19026    2.10965   18.18437
      H1    -3.93826    1.89788   18.77777
       H    -3.07939    7.90628   15.20457
       O    -2.71782    7.78453   14.34751
      H1    -2.80777    6.80943   14.25388
       H    -2.67880    5.71523   11.49116
       O    -2.50262    5.05009   12.17631
      H1    -3.10887    4.33260   11.95177
       H     0.65688    0.82786   15.07168
       O    -0.07564    0.61414   14.47463
      H1    -0.79051    1.20569   14.77257
       H    -2.79370    2.57761   14.74818
       O    -2.80360    1.82148   15.37581
      H1    -2.88614    2.19673   16.28367
       H    -1.64944    4.35926   15.36060
       O    -2.54550    4.51670   15.01012
      H1    -2.45776    4.67753   14.06485
       H     3.95924    7.73498   18.80427
       O     3.09624    8.06869   18.54383
      H1     2.78155    7.52547   17.77332
       H    -0.30577    5.30199   16.46600
       O    -0.30777    4.37305   16.80182
      H1     0.24430    4.45322   17.59059

