60
frame 0 | Written by MDAnalysis XYZWriter (release 2.4.3)
       H    -7.88281  -16.30332   10.96954
       O    -8.65820  -16.41474   10.40658
      H1    -8.36406  -17.12414    9.81077
       H    -3.97333  -13.16499    5.55298
       O    -3.06642  -13.08038    5.20722
      H1    -2.78416  -12.17955    5.49854
       H    -4.47422  -16.40770    7.97046
       O    -4.92120  -15.60201    8.22379
      H1    -4.42228  -15.35626    9.02363
       H    -8.69273  -16.00937    5.66570
       O    -8.66010  -15.06597    5.89834
      H1    -8.56330  -14.97542    6.87601
       H    -2.90697  -16.23437    3.70035
       O    -2.32398  -15.78973    4.35554
      H1    -2.71677  -14.89959    4.37444
       H    -5.75754  -13.02559    6.54350
       O    -5.54480  -13.88579    6.15116
      H1    -5.43840  -14.45008    6.92466
       H    -8.06992  -15.20003    8.97860
       O    -8.14703  -14.25033    8.77522
      H1    -9.10742  -14.10766    8.65218
       H    -1.31573  -14.18076   11.17323
       O    -1.65199  -15.03583   10.87289
      H1    -1.13199  -15.21285   10.08525
       H    -2.10578  -13.84762    7.04794
       O    -2.61531  -13.75552    7.88726
      H1    -3.44066  -14.21456    7.60978
       H    -6.07455  -17.13024   12.21095
       O    -6.18016  -16.73374   11.36304
      H1    -5.25885  -16.49063   11.17768
       H     0.01984  -15.75183    7.66902
       O    -0.68209  -15.80280    8.34061
      H1    -1.31276  -15.10649    8.08371
       H    -3.70475  -12.37356    9.50881
       O    -3.44360  -11.44534    9.48878
      H1    -2.55139  -11.50949    9.13446
       H    -5.53429  -13.74132   10.47077
       O    -4.60844  -14.11967   10.46830
      H1    -4.25215  -13.80829   11.32218
       H    -2.68583  -17.55137   10.11933
       O    -3.42343  -16.98880   10.35313
      H1    -3.06352  -16.17698   10.72361
       H    -7.67628  -14.55305   13.05389
       O    -7.53704  -14.22550   12.14769
      H1    -6.82567  -14.73114   11.75295
       H    -5.47586  -15.30525    4.87685
       O    -5.53404  -16.14914    4.41673
      H1    -5.93086  -15.89722    3.58221
       H    -2.27057  -17.02660    7.50753
       O    -3.05905  -17.12655    6.94127
      H1    -2.84412  -16.50859    6.23151
       H    -6.89627  -11.91819   10.53501
       O    -6.54802  -12.13904    9.66409
      H1    -7.13997  -12.83919    9.34946
       H    -7.55611  -18.21093    7.51926
       O    -7.88863  -17.40601    7.89692
      H1    -7.13971  -16.81164    7.96134
       H    -4.11143  -17.31973    2.25010
       O    -3.67007  -17.56375    3.08262
      H1    -4.31799  -17.23644    3.67424

