60
frame 2 | Written by MDAnalysis XYZWriter (release 2.4.3)
       H    -9.95673   -3.69816  -14.79530
       O    -9.16485   -4.25055  -15.03665
      H1    -8.62476   -4.23397  -14.21952
       H    -9.79986   -0.95817  -12.33415
       O    -9.16942   -1.61913  -12.63601
      H1    -8.75931   -1.92432  -11.81477
       H   -14.72327    0.70594  -11.05203
       O   -15.40524    0.95414  -10.38369
      H1   -16.00512    0.19478  -10.45047
       H   -10.80644    0.93701  -10.89455
       O   -11.12312    0.15330  -11.39387
      H1   -12.01493    0.40092  -11.64629
       H   -11.91354   -0.51672  -14.78897
       O   -12.71406   -0.04008  -15.04119
      H1   -12.35250    0.80881  -15.23753
       H   -11.42241   -1.57460  -10.58449
       O   -11.85502   -2.25757  -10.02507
      H1   -11.19404   -2.48542   -9.37397
       H   -14.20782   -1.97597  -16.73628
       O   -14.08771   -1.15092  -17.20790
      H1   -13.54805   -0.60840  -16.58143
       H   -14.00305   -5.02175  -10.34670
       O   -14.13111   -4.29794   -9.72737
      H1   -13.60016   -3.65092  -10.18369
       H   -15.66831   -3.88654  -17.53508
       O   -15.18422   -3.87440  -16.70777
      H1   -14.54458   -4.60653  -16.79748
       H   -11.09318   -1.84849  -18.13178
       O   -10.61521   -2.31597  -17.45041
      H1    -9.98781   -2.83270  -17.95441
       H   -13.24675   -2.32584  -13.87130
       O   -13.76976   -2.49626  -13.06851
      H1   -14.37310   -3.22823  -13.27453
       H   -11.08185   -3.41600  -11.09480
       O   -10.80234   -4.09851  -11.70982
      H1    -9.92113   -4.30262  -11.40452
       H   -13.94013   -1.01216  -12.50216
       O   -13.67423   -0.12297  -12.23552
      H1   -13.61901    0.28114  -13.11694
       H    -9.16269   -0.60875  -14.25226
       O    -9.68613   -0.13023  -14.89329
      H1    -9.17783   -0.22002  -15.71174
       H   -16.27843   -4.98869  -13.82570
       O   -15.90442   -4.08180  -13.94550
      H1   -15.67983   -3.96286  -14.87559
       H   -16.01590   -0.80321  -16.83356
       O   -16.92035   -1.01267  -17.03771
      H1   -17.02601   -0.71178  -17.91378
       H   -15.74694   -2.77278  -10.30761
       O   -16.39716   -2.11760  -10.04299
      H1   -16.81650   -1.88597  -10.89294
       H   -12.11782   -5.41513  -11.94436
       O   -12.48316   -6.21546  -11.54813
      H1   -13.19502   -6.39118  -12.16489
       H   -10.75472   -2.03267  -15.10222
       O   -11.47109   -2.45904  -14.61207
      H1   -11.04693   -2.57568  -13.74721
       H   -16.86934   -2.52832  -13.31051
       O   -17.32554   -2.03729  -12.64997
      H1   -18.08427   -1.70541  -13.13241

