60
frame 2 | Written by MDAnalysis XYZWriter (release 2.4.3)
       H    -1.18566    9.42059    6.60477
       O    -0.59921   10.11732    6.27509
      H1     0.18541    9.61821    6.02325
       H     1.34567   12.73192    6.51453
       O     1.76255   11.88364    6.75789
      H1     2.28793   11.64952    5.99922
       H    -4.57746   11.94596    5.51876
       O    -4.97471   11.56765    6.28539
      H1    -5.35655   10.75898    5.90509
       H    -0.53032    7.53218    5.55276
       O    -0.26732    7.29584    6.45187
      H1    -0.07380    6.35620    6.40540
       H     3.23979    6.96651    8.34009
       O     2.35682    6.96781    7.92777
      H1     2.49869    7.58905    7.20020
       H    -5.49361    7.29253    6.87153
       O    -5.51909    7.93437    7.60375
      H1    -4.65143    8.30828    7.62444
       H    -0.65115    8.25493    3.51639
       O    -0.20274    7.41495    3.67218
      H1     0.46465    7.41383    2.97409
       H    -3.62260   14.59512    5.54018
       O    -2.68603   14.58369    5.76004
      H1    -2.69724   13.98043    6.51868
       H     0.58296   11.84515    1.97364
       O    -0.31443   12.09130    2.24174
      H1    -0.13285   12.74488    2.94565
       H    -2.40578    5.50981    7.65526
       O    -2.11405    5.49293    8.57000
      H1    -1.90890    6.43303    8.69299
       H    -2.65947    8.44875    4.13965
       O    -3.34129    7.97704    4.63952
      H1    -3.91484    7.61048    3.92073
       H    -3.19572    9.12356    6.16799
       O    -3.18290    9.41246    7.06684
      H1    -3.42494   10.36782    7.03668
       H     1.37627   10.42233    8.16860
       O     1.48977    9.87240    8.94485
      H1     1.12151    9.05501    8.65374
       H    -3.40810   12.79033    8.53725
       O    -2.92509   13.58111    8.33689
      H1    -3.02083   14.18918    9.08185
       H    -1.18826   10.05348    3.02107
       O    -1.57862    9.77735    3.87595
      H1    -0.96130   10.06105    4.55352
       H     1.38603    6.81764    5.37089
       O     2.30408    6.49751    5.26370
      H1     2.53646    6.15993    6.11710
       H    -3.24331   10.72478    3.96033
       O    -4.10389   11.06065    3.70069
      H1    -3.96119   11.67053    2.96051
       H    -0.54625   10.98772    8.49754
       O    -1.09504   11.45643    9.16508
      H1    -1.74860   11.95003    8.67076
       H    -0.54095   10.52619   10.76578
       O    -0.32556    9.90166   11.46276
      H1    -1.07416   10.01303   12.05608
       H     2.65485    8.63456    4.64595
       O     2.13908    9.35784    5.08435
      H1     2.45789   10.14649    4.66613

