60
frame 2 | Written by MDAnalysis XYZWriter (release 2.4.3)
       H    15.84517   13.68820    7.99606
       O    15.97259   13.04390    7.28979
      H1    16.62791   12.43929    7.66869
       H    17.34050    7.57806    8.28975
       O    18.26101    7.39610    8.23018
      H1    18.23673    6.59065    7.69065
       H    17.98262   13.27211    5.08102
       O    17.14224   12.86124    4.89795
      H1    16.76670   12.85068    5.77417
       H    19.16186    5.21072    6.50446
       O    18.33708    4.88815    6.94890
      H1    18.17154    4.06143    6.50384
       H    14.14406    6.87647    3.59835
       O    13.56616    6.62534    4.31713
      H1    14.02592    6.98482    5.12692
       H    14.13738   12.22890    4.60082
       O    13.63644   11.91491    3.82027
      H1    13.21455   11.08317    4.12830
       H    17.20719    9.41689    0.78416
       O    17.79507   10.14145    0.97339
      H1    17.40095   10.43960    1.79145
       H    18.40075    5.59137    3.04022
       O    19.25136    5.20989    3.24762
      H1    19.12362    4.27527    3.19809
       H    16.23276    9.40968    9.34466
       O    16.02620    8.48905    9.39200
      H1    15.49957    8.36256   10.18607
       H    13.30334    9.48760    7.81098
       O    12.81806   10.00403    8.42576
      H1    13.26768    9.80461    9.28047
       H    16.31770    5.91764    5.33292
       O    16.02111    6.37680    6.12766
      H1    16.25166    5.75254    6.82534
       H    15.13219    8.25559    6.74737
       O    14.42099    8.73269    6.23928
      H1    14.90795    9.00428    5.43606
       H    13.16590   11.42049    6.94382
       O    13.42905   12.30514    6.62772
      H1    14.27331   12.47891    7.05669
       H    16.44743    6.76480    2.30623
       O    17.23524    7.13082    2.76639
      H1    16.94801    8.00003    3.00608
       H    18.52446    8.64480    4.72357
       O    17.96786    8.68624    5.52702
      H1    17.91516    7.76468    5.80413
       H    17.60844   11.41260    9.13995
       O    16.80585   11.14603    9.57879
      H1    16.43747   12.00438    9.84006
       H    14.15940    4.84124    4.67591
       O    14.36667    3.94587    4.36765
      H1    15.02988    3.61986    4.98075
       H    15.21944   11.83624    2.20532
       O    16.15202   11.96051    2.43491
      H1    16.17140   12.52557    3.19856
       H    15.34871    7.83641   -0.03058
       O    15.41509    8.58147    0.58481
      H1    14.49616    8.82337    0.77738
       H    16.59001    9.36935    4.55797
       O    15.79139    9.40832    3.98801
      H1    15.78100   10.27276    3.55611

