60
frame 2 | Written by MDAnalysis XYZWriter (release 2.4.3)
       H   -13.41917  -10.32641   -5.59002
       O   -13.22610   -9.58951   -4.97745
      H1   -13.23090   -9.96711   -4.09534
       H   -13.14797  -11.90456   -2.92247
       O   -12.31517  -11.57312   -3.16735
      H1   -12.13867  -11.80141   -4.08563
       H    -9.01483   -9.76419    1.80525
       O    -8.94990  -10.55536    2.34476
      H1    -8.89228  -11.23304    1.66590
       H    -7.37872  -12.53853   -2.77650
       O    -7.45942  -13.40985   -3.17538
      H1    -7.16262  -14.04012   -2.53484
       H    -7.03461   -8.57265    1.58738
       O    -6.05317   -8.56170    1.66146
      H1    -5.80590   -9.33264    2.17857
       H    -7.38227   -7.39793   -2.23705
       O    -7.64833   -7.04223   -1.39001
      H1    -6.81842   -6.94627   -0.92119
       H   -12.52445  -11.77790    2.05189
       O   -13.20371  -11.08700    2.01630
      H1   -13.48508  -10.86279    2.91991
       H   -10.55799   -9.35716   -1.56718
       O    -9.93787  -10.02310   -1.25594
      H1   -10.36722  -10.84697   -1.44880
       H   -11.74700   -9.75248    0.43622
       O   -11.59186   -8.91337    0.83443
      H1   -11.78220   -9.11525    1.77504
       H   -10.91866   -6.24815    0.19860
       O   -10.51331   -6.04110   -0.66456
      H1   -10.96451   -6.66193   -1.25877
       H   -11.47320  -12.53672   -1.96661
       O   -10.91916  -12.90079   -1.26569
      H1   -11.52218  -13.17702   -0.54526
       H   -10.92851   -9.75151   -4.95649
       O   -10.43221   -8.95048   -4.86343
      H1   -10.15228   -8.76032   -5.77342
       H    -8.23648   -6.03743   -4.09413
       O    -8.97147   -6.59739   -3.75960
      H1    -8.80556   -6.69095   -2.80708
       H   -12.65401   -8.14980   -2.52698
       O   -11.71024   -8.23100   -2.41761
      H1   -11.30274   -8.28519   -3.30130
       H    -6.01686  -11.42948    1.95675
       O    -6.25930  -11.64253    1.04209
      H1    -5.93121  -10.86095    0.55997
       H    -8.50851   -8.11259   -0.02683
       O    -8.84326   -8.34967    0.83740
      H1    -9.78575   -8.56856    0.66551
       H    -8.39615   -8.89466   -4.15368
       O    -7.74277   -9.53403   -3.80920
      H1    -6.93609   -9.06044   -4.00874
       H    -8.23738  -11.17099   -4.60236
       O    -8.38120  -11.78720   -5.31518
      H1    -8.57580  -12.58080   -4.82769
       H    -5.77227  -11.09475   -2.24779
       O    -6.67072  -11.02757   -1.87838
      H1    -7.10970  -10.40963   -2.47508
       H    -8.05563  -12.03225    0.47507
       O    -8.80476  -12.64386    0.54332
      H1    -9.32738  -12.46907   -0.26666

