60
frame 2 | Written by MDAnalysis XYZWriter (release 2.4.3)
       H    -8.70065    5.50600   -1.40887
       O    -9.49716    6.00682   -1.23369
      H1    -9.26812    6.82644   -1.72317
       H   -12.15088    6.10117   -5.12936
       O   -12.67082    6.88339   -4.89585
      H1   -12.16880    7.66819   -5.13611
       H   -12.87091    6.23950   -0.98151
       O   -12.17366    5.91145   -0.41141
      H1   -11.42179    5.84746   -1.03933
       H   -12.90023    3.52425   -4.63736
       O   -12.18851    4.16004   -4.60763
      H1   -11.91060    4.16505   -3.66795
       H   -15.13373    2.28527   -4.56892
       O   -14.35124    2.62381   -5.00457
      H1   -13.96618    1.88428   -5.51564
       H    -7.51928    2.51695   -1.89434
       O    -7.67001    1.73614   -2.42844
      H1    -8.12735    1.10722   -1.87239
       H   -10.63879    2.91583   -2.94340
       O   -10.86290    3.41024   -2.14633
      H1   -10.38827    4.24070   -2.23790
       H   -14.03489    3.97768   -1.87157
       O   -13.59178    3.14926   -1.68257
      H1   -12.66193    3.21440   -1.93805
       H   -13.97259    1.47400   -0.42050
       O   -13.64682    1.51006    0.46949
      H1   -13.47238    2.45870    0.63638
       H   -11.03274    4.23908   -6.18330
       O   -10.41558    4.11805   -6.90040
      H1   -10.71767    3.30068   -7.28387
       H    -9.98582    2.86756   -0.64790
       O    -9.82285    2.59532    0.27688
      H1   -10.47058    1.87852    0.38753
       H    -9.04017   -1.31406   -1.38982
       O    -9.06788   -0.36185   -1.49824
      H1    -9.85136   -0.08846   -1.01431
       H    -8.91481    6.60259   -4.76657
       O    -9.19010    5.72598   -4.43742
      H1    -9.14751    5.20165   -5.24935
       H   -12.02511    0.78339   -6.39016
       O   -12.71010    1.42439   -6.56843
      H1   -12.58649    1.66217   -7.49751
       H   -10.02068   -0.66090   -6.58699
       O   -10.48229   -0.43885   -5.79214
      H1   -10.63647   -1.28298   -5.38483
       H   -10.76939    0.54519   -4.47614
       O   -10.74624    1.04603   -3.63566
      H1   -10.13597    0.56150   -3.08657
       H    -7.97293    1.40852   -4.64002
       O    -8.30070    1.68957   -5.51777
      H1    -9.02410    1.07965   -5.71103
       H    -7.16214    4.54155   -3.00409
       O    -7.24496    4.48809   -2.03824
      H1    -6.39704    4.65634   -1.64321
       H   -13.79374    1.37213   -2.43333
       O   -13.90599    0.40926   -2.34227
      H1   -14.83584    0.20449   -2.55498
       H   -12.10697    0.68349    0.50131
       O   -11.31113    0.20465    0.25788
      H1   -11.05052   -0.19354    1.08814

