60
frame 2 | Written by MDAnalysis XYZWriter (release 2.4.3)
       H    15.47646   -6.16859    9.16092
       O    15.27194   -5.74293   10.02208
      H1    16.18272   -5.67358   10.41653
       H    14.36621   -3.32391    8.63161
       O    14.05516   -3.47477    9.54889
      H1    14.09148   -4.42228    9.67711
       H    13.27335   -7.90424    7.84506
       O    12.94166   -7.40156    8.57352
      H1    13.06142   -7.98083    9.30561
       H    17.51695   -4.90581    7.80636
       O    18.26822   -4.40724    7.46032
      H1    18.28692   -4.60708    6.51078
       H    10.42487   -5.85221   11.21798
       O    10.05856   -5.81804   12.12280
      H1    10.77399   -6.13974   12.66642
       H    14.95678   -2.93634    6.42805
       O    14.73918   -3.70785    6.92568
      H1    15.51988   -4.27337    6.82307
       H    11.50301   -4.49171    9.44827
       O    11.18418   -5.39428    9.44576
      H1    11.91623   -5.93567    9.21078
       H    18.14721   -0.49921   11.31021
       O    17.30138   -0.46027   11.83115
      H1    16.80093   -1.27090   11.60760
       H    18.25068   -6.27861   12.42185
       O    18.51967   -6.99995   13.02080
      H1    18.81399   -7.72681   12.41531
       H    17.17001   -4.92633   13.83741
       O    16.30910   -5.10609   13.38091
      H1    15.87504   -5.74243   13.98484
       H    19.26984   -5.67787   10.33705
       O    18.37434   -5.53175   10.72130
      H1    18.45001   -4.60798   10.94807
       H    15.67684   -8.53091   12.25846
       O    15.49737   -8.54111   11.31039
      H1    15.27518   -7.61092   11.18069
       H    10.91066   -2.54602    9.32893
       O    11.54085   -2.67371    8.60901
      H1    12.39933   -2.62822    9.07133
       H    13.22410   -3.41198   11.18002
       O    12.78089   -3.68128   12.01044
      H1    13.33996   -3.18702   12.64638
       H    17.44377   -1.30072    8.59162
       O    17.71612   -1.62547    7.73060
      H1    17.80758   -2.58268    7.81527
       H    16.24985   -7.01774    7.49445
       O    15.82660   -6.17865    7.34158
      H1    15.64967   -6.26374    6.37708
       H    15.94238   -3.78173   12.10569
       O    16.14432   -3.03002   11.50642
      H1    15.52227   -3.25190   10.80226
       H    12.79313   -7.43453   12.16408
       O    13.12403   -6.63749   12.64617
      H1    13.10931   -5.96465   11.95897
       H    14.61192   -3.14531   14.00491
       O    14.37111   -2.21297   13.87345
      H1    14.12781   -1.89238   14.73915
       H    16.64503   -8.36135    9.41677
       O    16.97436   -8.43977    8.52101
      H1    16.71148   -9.38086    8.35510

