60
frame 2 | Written by MDAnalysis XYZWriter (release 2.4.3)
       H    -3.33346    7.08410  -10.92081
       O    -2.62770    7.14979  -11.56495
      H1    -1.83674    7.11867  -11.00540
       H    -0.08477    5.39024   -7.49114
       O    -0.79040    5.99786   -7.75339
      H1    -0.45852    6.46608   -8.51908
       H     1.24533    6.98936  -13.99094
       O     0.36737    6.75735  -14.38033
      H1     0.13464    7.58723  -14.78441
       H     0.02819    6.09221  -12.55942
       O    -0.28402    5.64863  -11.75862
      H1    -1.22999    5.52607  -11.82312
       H    -1.99309    8.93724   -9.76363
       O    -2.51952    8.69693   -8.99329
      H1    -1.89203    8.79463   -8.28609
       H     0.04815    5.24399  -16.01723
       O    -0.28115    4.44678  -16.43029
      H1    -0.57069    3.91826  -15.64657
       H    -0.63308    2.82788   -8.28718
       O     0.03001    3.16262   -7.67434
      H1     0.81491    3.21583   -8.20862
       H    -1.66759    7.66279  -15.45759
       O    -1.13265    8.08600  -16.12600
      H1    -1.64369    8.85054  -16.46713
       H    -0.29448    2.03606  -13.94888
       O    -0.75948    2.87052  -14.12630
      H1    -0.28040    3.48425  -13.54256
       H    -1.65141    2.53714  -11.73814
       O    -1.64301    1.58012  -11.53812
      H1    -2.27633    1.19897  -12.17243
       H     2.79610    5.03616  -10.73220
       O     3.26500    5.84817  -10.86079
      H1     2.66838    6.41525  -11.35329
       H     0.39020    8.56288   -9.56900
       O     0.12843    7.64796   -9.75593
      H1     0.67063    7.43804  -10.50455
       H     2.57273    3.09462  -13.66357
       O     1.90527    3.78318  -13.54564
      H1     1.66404    3.69516  -12.59308
       H     1.50583    4.33315   -9.43727
       O     1.35270    4.04441  -10.36097
      H1     0.99561    4.83679  -10.81972
       H    -3.61202    7.53161  -14.97985
       O    -3.00769    6.90032  -14.55214
      H1    -3.11630    7.06512  -13.61763
       H    -2.42382    5.09064   -7.90148
       O    -3.25879    4.66926   -8.06482
      H1    -2.99170    3.78970   -8.27347
       H    -3.70823    4.25297  -13.06504
       O    -2.79797    4.06538  -12.76581
      H1    -2.49149    3.44319  -13.43070
       H     0.76152    8.20562  -12.19586
       O     1.57009    7.68569  -12.04996
      H1     2.29207    8.23994  -12.28610
       H     4.00750    6.35047  -14.52608
       O     3.18582    6.35442  -13.94558
      H1     2.92934    5.40774  -13.95597
       H    -0.84637    9.98896  -11.72443
       O    -0.46790    9.40266  -12.42279
      H1    -0.62322    9.91705  -13.19743

