60
frame 2 | Written by MDAnalysis XYZWriter (release 2.4.3)
       H    -4.78584   18.16175    1.83196
       O    -4.72380   17.37636    2.43676
      H1    -4.44068   17.70782    3.28252
       H    -8.09598   16.99496    0.06953
       O    -7.94807   16.38235    0.82937
      H1    -8.59091   16.68017    1.47801
       H    -4.27443   18.07323    7.69895
       O    -4.04413   17.94697    8.60365
      H1    -4.76982   18.36333    9.08324
       H    -9.64657   18.33780    2.22516
       O   -10.10880   17.47276    2.27869
      H1   -11.04885   17.60207    2.24824
       H    -8.58597   17.85565    9.05168
       O    -8.91459   18.18624    8.20648
      H1    -9.17920   19.09357    8.43565
       H    -9.39433   15.80982    9.26151
       O   -10.21140   15.28384    9.19254
      H1   -10.32094   14.93807   10.05722
       H   -10.81475   17.51099    8.21789
       O   -11.53001   17.83638    7.66701
      H1   -11.49972   18.78764    7.73871
       H    -7.71684   18.58857    6.11542
       O    -7.20478   19.08659    5.43916
      H1    -7.54380   18.76049    4.58822
       H   -10.86102   16.38528    3.41276
       O   -11.39293   15.89882    4.10100
      H1   -12.05829   16.54089    4.40140
       H   -10.33953   16.97198    5.08743
       O    -9.65981   17.53979    5.46992
      H1    -9.97160   17.81928    6.36148
       H    -3.62260   14.59512    5.54018
       O    -2.68603   14.58369    5.76004
      H1    -2.69724   13.98043    6.51868
       H    -6.06692   12.84715    7.06386
       O    -6.76606   13.41152    7.44481
      H1    -7.49598   12.83537    7.72128
       H    -8.27194   14.90241    6.44556
       O    -7.89682   15.70217    6.04468
      H1    -8.67736   16.21650    5.77842
       H   -10.01591   13.27613    7.21234
       O   -10.00327   13.49903    6.26543
      H1   -10.76183   14.07292    6.25207
       H    -4.97082   16.98543    5.16816
       O    -4.69340   17.88968    5.38378
      H1    -5.55184   18.33652    5.38070
       H   -12.62188   16.98876    6.70454
       O   -13.19815   16.56856    6.01308
      H1   -13.12489   15.61514    6.20234
       H    -8.53641   16.50802   11.59562
       O    -8.09063   16.49330   10.75081
      H1    -7.99355   15.54116   10.56459
       H    -2.48613   16.35974    6.23502
       O    -2.23961   17.28868    6.10284
      H1    -3.07264   17.72149    5.82735
       H    -7.95027   15.01854    3.68253
       O    -8.60685   14.75653    3.02182
      H1    -8.09374   14.67171    2.23374
       H    -5.57000   14.87344    4.25692
       O    -5.31654   15.13228    5.16063
      H1    -6.18560   15.10228    5.57377

