60
frame 2 | Written by MDAnalysis XYZWriter (release 2.4.3)
       H   -11.18503   18.15106   -3.81140
       O   -11.28087   17.29151   -3.40657
      H1   -12.13783   16.97269   -3.71607
       H   -12.93531   12.26554   -6.27826
       O   -13.50759   12.67768   -5.62049
      H1   -12.96705   12.57929   -4.81929
       H   -14.91853   17.79861   -2.59001
       O   -14.21263   17.20226   -2.81239
      H1   -13.57734   17.26286   -2.06893
       H   -10.70028   14.54946   -2.26617
       O   -10.94677   14.20757   -3.12630
      H1   -11.77632   14.62725   -3.34874
       H   -15.16152   15.57773   -9.88494
       O   -15.85550   15.48400  -10.53483
      H1   -15.41995   15.18558  -11.33898
       H   -17.96685   15.50171   -3.93318
       O   -18.73733   15.54883   -3.36701
      H1   -18.79700   14.68826   -2.91937
       H   -14.92291   11.00095   -5.36687
       O   -15.08386   10.09619   -5.70186
      H1   -15.95167   10.17761   -6.15042
       H   -12.87974   16.45773   -6.27190
       O   -13.28363   17.29622   -6.51637
      H1   -13.03292   17.47313   -7.44227
       H   -17.72001   12.92020   -5.46079
       O   -18.07593   12.08281   -5.80299
      H1   -17.81263   12.05476   -6.72650
       H   -15.01756   12.96062   -2.12615
       O   -14.48871   12.30099   -1.60673
      H1   -14.43061   12.74172   -0.74225
       H   -16.70643   17.31829   -7.98889
       O   -16.50061   17.36736   -7.00709
      H1   -16.91507   18.16851   -6.72650
       H   -17.60362   16.52315  -10.01111
       O   -17.88481   17.38393   -9.67374
      H1   -18.51900   17.17450   -8.97725
       H   -14.47159   14.37983   -7.41818
       O   -14.22533   15.00262   -8.10554
      H1   -14.29965   15.85461   -7.61250
       H   -16.32706   14.43128   -2.19107
       O   -15.57860   14.73496   -2.76365
      H1   -15.60272   15.68597   -2.62892
       H   -17.88526   12.29756   -2.05471
       O   -17.82965   13.06340   -1.47159
      H1   -17.33592   12.65916   -0.72672
       H   -16.54771   15.60789   -5.80445
       O   -16.90072   15.01142   -5.13947
      H1   -16.19239   15.04081   -4.46901
       H   -13.86667   17.79471   -9.96038
       O   -13.12047   17.77943   -9.31085
      H1   -12.65749   16.96793   -9.59550
       H   -13.94848   15.03862   -4.26430
       O   -13.19301   15.14002   -4.81614
      H1   -13.13371   14.33693   -5.36847
       H   -17.08869   13.45373   -8.81625
       O   -16.85874   12.75987   -8.16233
      H1   -16.14687   12.29037   -8.63180
       H   -17.68955   16.78487   -1.98050
       O   -16.89658   17.26443   -1.69660
      H1   -16.57095   16.71985   -0.97006

