60
frame 2 | Written by MDAnalysis XYZWriter (release 2.4.3)
       H    -9.36152  -10.87849   12.11350
       O   -10.18954  -10.91187   11.61534
      H1   -10.86462  -11.02747   12.25915
       H   -12.82335  -13.94850   14.74148
       O   -12.33180  -13.61683   13.98782
      H1   -12.96828  -13.01685   13.62033
       H   -12.21854   -8.10540   10.92197
       O   -12.14766   -7.68866   11.79326
      H1   -11.92679   -6.78303   11.55419
       H    -8.14650  -11.13543   10.72153
       O    -7.36619  -11.07471   10.15837
      H1    -6.97361  -11.92213   10.29456
       H   -10.80707  -10.17378    8.69988
       O   -11.30915  -10.83740    9.18323
      H1   -10.73459  -11.08631    9.89642
       H   -10.45519   -8.38092    7.02577
       O   -10.18243   -8.51524    7.93722
      H1    -9.17957   -8.57364    7.87885
       H   -10.98830  -11.83557   14.26366
       O   -10.18380  -11.68689   14.80063
      H1   -10.05577  -10.73466   14.75513
       H   -14.26498  -14.94820   10.91126
       O   -14.11976  -14.24346   11.56115
      H1   -13.24377  -13.93223   11.31829
       H   -13.40562   -8.69438    8.48620
       O   -12.94231   -8.71616    9.33651
      H1   -12.40520   -9.52285    9.30239
       H   -11.79534  -14.92250    9.59806
       O   -11.52024  -15.67918   10.11256
      H1   -11.17929  -15.31248   10.94018
       H    -6.93524   -7.96006    8.32324
       O    -7.58236   -8.33374    8.92128
      H1    -8.11723   -7.54621    9.19054
       H    -9.76316   -8.31276   14.45966
       O   -10.26734   -9.04182   14.06930
      H1   -10.60387   -8.68868   13.23716
       H   -14.69866   -9.20619   11.79352
       O   -14.28984   -9.97593   11.34674
      H1   -13.74667   -9.58454   10.65202
       H    -7.94319  -11.64586    8.70238
       O    -8.15427  -12.06746    7.86300
      H1    -8.09081  -12.99824    8.14189
       H    -9.85425  -15.70654   12.93342
       O   -10.70082  -15.48150   12.54875
      H1   -11.01447  -14.74260   13.08082
       H   -12.64651  -13.79932    7.92226
       O   -11.81288  -13.77253    8.40264
      H1   -11.77203  -12.87532    8.73883
       H    -7.03232  -14.00989   13.52121
       O    -7.27267  -13.42747   14.24642
      H1    -6.62920  -13.57836   14.95821
       H   -13.30637  -10.64582   12.58763
       O   -12.71688  -10.95835   13.28543
      H1   -12.66988  -10.23606   13.92315
       H    -7.71744  -11.63599   13.73912
       O    -7.71740  -10.85545   13.16528
      H1    -7.93765  -10.15692   13.76371
       H    -5.39411   -9.71580   12.15452
       O    -5.24509   -9.72520   13.12942
      H1    -5.96954  -10.29154   13.46059

