60
frame 2 | Written by MDAnalysis XYZWriter (release 2.4.3)
       H   -11.77432    3.00170  -12.43430
       O   -12.70493    3.00976  -12.17474
      H1   -12.69840    3.34208  -11.25359
       H   -13.35319   -0.96261   -9.22410
       O   -13.59830   -0.32009   -8.57811
      H1   -14.47084   -0.08930   -8.91212
       H    -9.79986   -0.95817  -12.33415
       O    -9.16942   -1.61913  -12.63601
      H1    -8.75931   -1.92432  -11.81477
       H   -14.72327    0.70594  -11.05203
       O   -15.40524    0.95414  -10.38369
      H1   -16.00512    0.19478  -10.45047
       H   -10.80644    0.93701  -10.89455
       O   -11.12312    0.15330  -11.39387
      H1   -12.01493    0.40092  -11.64629
       H   -16.50443    2.04316  -13.13536
       O   -16.87915    2.10046  -12.22646
      H1   -16.26346    1.54054  -11.72719
       H   -15.76738    1.22750  -15.59039
       O   -15.85580    1.55500  -14.68028
      H1   -15.67090    2.48206  -14.79879
       H   -11.91354   -0.51672  -14.78897
       O   -12.71406   -0.04008  -15.04119
      H1   -12.35250    0.80881  -15.23753
       H   -11.42241   -1.57460  -10.58449
       O   -11.85502   -2.25757  -10.02507
      H1   -11.19404   -2.48542   -9.37397
       H   -14.20782   -1.97597  -16.73628
       O   -14.08771   -1.15092  -17.20790
      H1   -13.54805   -0.60840  -16.58143
       H   -13.24675   -2.32584  -13.87130
       O   -13.76976   -2.49626  -13.06851
      H1   -14.37310   -3.22823  -13.27453
       H   -11.00532    1.00735   -8.55910
       O   -11.55005    1.66907   -8.97645
      H1   -12.39986    1.25138   -9.06192
       H   -13.94013   -1.01216  -12.50216
       O   -13.67423   -0.12297  -12.23552
      H1   -13.61901    0.28114  -13.11694
       H    -9.16269   -0.60875  -14.25226
       O    -9.68613   -0.13023  -14.89329
      H1    -9.17783   -0.22002  -15.71174
       H   -15.74694   -2.77278  -10.30761
       O   -16.39716   -2.11760  -10.04299
      H1   -16.81650   -1.88597  -10.89294
       H   -11.38634    2.38442  -15.06495
       O   -11.55311    2.53001  -16.00251
      H1   -10.74643    2.19551  -16.41932
       H   -14.20045    3.67322  -12.22296
       O   -15.05612    4.10313  -12.28856
      H1   -15.69120    3.38974  -12.20508
       H   -10.75472   -2.03267  -15.10222
       O   -11.47109   -2.45904  -14.61207
      H1   -11.04693   -2.57568  -13.74721
       H    -9.60240    3.23445  -14.04396
       O   -10.12126    2.50017  -13.68956
      H1    -9.73414    1.76158  -14.13778
       H   -16.86934   -2.52832  -13.31051
       O   -17.32554   -2.03729  -12.64997
      H1   -18.08427   -1.70541  -13.13241

