60
frame 2 | Written by MDAnalysis XYZWriter (release 2.4.3)
       H     2.15433    5.33652   -6.18171
       O     2.00029    5.23760   -7.09478
      H1     2.36435    6.06033   -7.46248
       H     2.87669    8.72584   -2.42029
       O     2.54410    8.63853   -1.52535
      H1     2.83186    7.75351   -1.23254
       H    -0.08477    5.39024   -7.49114
       O    -0.79040    5.99786   -7.75339
      H1    -0.45852    6.46608   -8.51908
       H     2.11403    6.84871   -4.42903
       O     3.01943    6.71174   -4.74078
      H1     3.32670    6.07378   -4.06383
       H    -0.97253    6.41390   -1.46513
       O    -0.68016    5.83620   -0.75485
      H1    -0.84730    4.95665   -1.06499
       H     4.17781    5.67726   -1.59592
       O     4.31926    6.48313   -1.05561
      H1     5.13480    6.86176   -1.42558
       H     1.42227    2.41562   -4.95122
       O     0.52157    2.74021   -4.86357
      H1     0.29389    2.94100   -5.78486
       H     0.85521    9.61575   -7.28874
       O     1.64190   10.04199   -7.60772
      H1     2.16765    9.31453   -7.92598
       H     0.69348    4.88887   -2.25915
       O     1.16226    4.87533   -3.09005
      H1     0.68975    4.23974   -3.62778
       H     5.55165    4.84985   -6.06372
       O     5.80523    4.23644   -5.35665
      H1     5.14797    4.43682   -4.66738
       H     0.57499   11.02804   -4.32386
       O    -0.26992   10.81450   -4.74197
      H1    -0.90237   10.63897   -3.98250
       H     2.81718   10.13888   -4.64811
       O     3.40161    9.56518   -4.11399
      H1     3.29486    8.71196   -4.59636
       H    -0.78658    8.37708   -6.45308
       O    -0.93870    9.24782   -6.88496
      H1    -0.80235    9.82841   -6.12222
       H     5.89004    9.40203   -5.77262
       O     6.03575    9.89994   -4.96967
      H1     5.19894    9.93659   -4.50431
       H     5.71812    4.14439   -2.71504
       O     4.74874    4.16545   -2.88132
      H1     4.44568    3.35028   -2.46041
       H    -0.50342    8.84028   -2.39076
       O     0.20806    8.18754   -2.33999
      H1     0.95244    8.68523   -1.96992
       H     6.42433    5.97315   -7.54273
       O     5.50977    5.77457   -7.46661
      H1     5.31733    5.20738   -8.22142
       H     0.22462    6.73723   -5.13999
       O     0.36539    7.69883   -5.14304
      H1     0.37643    7.89080   -4.19379
       H     3.35005    7.11422   -9.47900
       O     3.45029    7.43429   -8.57899
      H1     4.12745    6.83811   -8.22331
       H     3.85458    9.86940   -1.38680
       O     4.42453   10.67952   -1.41400
      H1     3.84796   11.29917   -1.92655

