60
frame 2 | Written by MDAnalysis XYZWriter (release 2.4.3)
       H   -18.86906   17.84477  -15.98262
       O   -18.79718   17.05410  -16.54085
      H1   -18.27665   16.44420  -16.03172
       H   -15.16152   15.57773   -9.88494
       O   -15.85550   15.48400  -10.53483
      H1   -15.41995   15.18558  -11.33898
       H   -18.19066   17.69969  -11.49268
       O   -18.49912   17.76424  -12.39094
      H1   -17.69086   17.72031  -12.89567
       H   -14.44041   15.46788  -15.53887
       O   -14.62437   16.40764  -15.36977
      H1   -15.41228   16.38456  -14.82101
       H   -12.87974   16.45773   -6.27190
       O   -13.28363   17.29622   -6.51637
      H1   -13.03292   17.47313   -7.44227
       H   -17.72001   12.92020   -5.46079
       O   -18.07593   12.08281   -5.80299
      H1   -17.81263   12.05476   -6.72650
       H   -16.83823   13.03009  -14.11705
       O   -16.29977   13.83541  -14.34116
      H1   -15.46636   13.74399  -13.85885
       H   -12.17528   12.87276  -11.41916
       O   -12.76485   13.31926  -10.82500
      H1   -12.50329   12.90575   -9.96761
       H   -12.21374   15.02549   -9.88185
       O   -11.66544   15.59691   -9.34965
      H1   -10.81806   15.63598   -9.79371
       H   -13.29929   14.77532  -12.57230
       O   -13.99663   15.36938  -12.81844
      H1   -13.76369   15.60798  -13.72479
       H   -16.70643   17.31829   -7.98889
       O   -16.50061   17.36736   -7.00709
      H1   -16.91507   18.16851   -6.72650
       H   -17.60362   16.52315  -10.01111
       O   -17.88481   17.38393   -9.67374
      H1   -18.51900   17.17450   -8.97725
       H   -15.90706   18.20502  -12.74979
       O   -16.03310   17.77747  -13.59877
      H1   -16.04848   18.52638  -14.25245
       H   -14.47159   14.37983   -7.41818
       O   -14.22533   15.00262   -8.10554
      H1   -14.29965   15.85461   -7.61250
       H   -14.24895   18.65660  -12.67628
       O   -13.75782   18.04687  -12.09135
      H1   -14.04725   17.13164  -12.37902
       H   -17.90780   11.33904  -11.95005
       O   -16.95129   11.31482  -11.75809
      H1   -16.81884   10.36701  -11.55390
       H   -14.44040   12.33853  -10.23717
       O   -15.12931   11.71578   -9.92174
      H1   -15.77703   11.62835  -10.63107
       H   -16.54771   15.60789   -5.80445
       O   -16.90072   15.01142   -5.13947
      H1   -16.19239   15.04081   -4.46901
       H   -13.86667   17.79471   -9.96038
       O   -13.12047   17.77943   -9.31085
      H1   -12.65749   16.96793   -9.59550
       H   -17.08869   13.45373   -8.81625
       O   -16.85874   12.75987   -8.16233
      H1   -16.14687   12.29037   -8.63180

