60
frame 2 | Written by MDAnalysis XYZWriter (release 2.4.3)
       H    -6.02780    3.16934   17.59977
       O    -6.10064    4.11493   17.82018
      H1    -6.02674    4.56925   16.95043
       H    -5.36548    3.90884   14.82120
       O    -5.84848    4.75275   14.78122
      H1    -6.74830    4.46402   14.45170
       H    -6.42778    7.09155   18.36773
       O    -7.27989    6.62929   18.22311
      H1    -7.02068    5.69970   18.30678
       H    -6.26297    4.62339   10.54711
       O    -6.15417    4.41979   11.50870
      H1    -5.97117    5.27347   11.89036
       H    -8.22015    1.79485   17.06670
       O    -9.11845    1.80935   17.42356
      H1    -9.25694    0.86455   17.53762
       H    -4.33949    4.41492   18.31351
       O    -3.58583    4.98192   18.53670
      H1    -3.60829    5.03807   19.51162
       H    -3.74510    6.27188   16.71170
       O    -4.44589    6.84064   16.37289
      H1    -4.95107    6.29236   15.73687
       H    -3.89053    2.00496   12.20777
       O    -3.85522    2.67676   11.51670
      H1    -4.69681    3.13823   11.57903
       H    -7.95724    1.76851   15.29505
       O    -7.08977    1.89993   15.72383
      H1    -6.45714    1.63628   15.05286
       H    -3.07147    3.05359   18.33462
       O    -3.19026    2.10965   18.18437
      H1    -3.93826    1.89788   18.77777
       H    -5.67110    0.85654   13.35610
       O    -5.09836    1.49035   13.83975
      H1    -4.29103    0.98731   14.05807
       H    -9.47785    3.23395   16.35468
       O    -9.86239    3.83232   15.71805
      H1    -9.42447    4.66431   15.89212
       H    -6.24024    7.11334   13.52517
       O    -6.26115    7.08953   12.55106
      H1    -7.20771    7.13684   12.40420
       H    -9.23651    7.07046   15.77744
       O    -8.65717    6.33304   16.02374
      H1    -8.38594    6.51105   16.93322
       H    -3.07939    7.90628   15.20457
       O    -2.71782    7.78453   14.34751
      H1    -2.80777    6.80943   14.25388
       H    -2.67880    5.71523   11.49116
       O    -2.50262    5.05009   12.17631
      H1    -3.10887    4.33260   11.95177
       H    -7.01782    7.68309   15.82705
       O    -6.43626    8.36548   15.43150
      H1    -5.66430    8.30269   15.97297
       H    -2.79370    2.57761   14.74818
       O    -2.80360    1.82148   15.37581
      H1    -2.88614    2.19673   16.28367
       H    -1.64944    4.35926   15.36060
       O    -2.54550    4.51670   15.01012
      H1    -2.45776    4.67753   14.06485
       H    -7.56564    3.90864   12.65051
       O    -8.17241    4.19270   13.35863
      H1    -8.49415    3.34436   13.69780

