60
frame 2 | Written by MDAnalysis XYZWriter (release 2.4.3)
       H     2.15433    5.33652   -6.18171
       O     2.00029    5.23760   -7.09478
      H1     2.36435    6.06033   -7.46248
       H     2.87669    8.72584   -2.42029
       O     2.54410    8.63853   -1.52535
      H1     2.83186    7.75351   -1.23254
       H    -0.08477    5.39024   -7.49114
       O    -0.79040    5.99786   -7.75339
      H1    -0.45852    6.46608   -8.51908
       H     1.97703   12.03152   -2.63550
       O     1.20015   11.45114   -2.51197
      H1     0.42644   12.02157   -2.54760
       H     2.11403    6.84871   -4.42903
       O     3.01943    6.71174   -4.74078
      H1     3.32670    6.07378   -4.06383
       H    -0.97253    6.41390   -1.46513
       O    -0.68016    5.83620   -0.75485
      H1    -0.84730    4.95665   -1.06499
       H    -4.50224    6.46143   -5.68062
       O    -3.91116    7.21114   -5.90440
      H1    -3.02276    6.85497   -5.94384
       H     0.85521    9.61575   -7.28874
       O     1.64190   10.04199   -7.60772
      H1     2.16765    9.31453   -7.92598
       H     0.69348    4.88887   -2.25915
       O     1.16226    4.87533   -3.09005
      H1     0.68975    4.23974   -3.62778
       H     0.57499   11.02804   -4.32386
       O    -0.26992   10.81450   -4.74197
      H1    -0.90237   10.63897   -3.98250
       H     2.81718   10.13888   -4.64811
       O     3.40161    9.56518   -4.11399
      H1     3.29486    8.71196   -4.59636
       H     2.30632   12.58179   -5.79996
       O     2.77081   11.72516   -5.67164
      H1     2.44154   11.24073   -6.45196
       H    -3.90668    9.49731   -4.35345
       O    -3.82865    8.76544   -3.72404
      H1    -3.36632    8.10370   -4.23932
       H    -0.78658    8.37708   -6.45308
       O    -0.93870    9.24782   -6.88496
      H1    -0.80235    9.82841   -6.12222
       H     1.25445    9.67840    0.34585
       O     0.71852   10.47584    0.04699
      H1     1.20453   10.69821   -0.76319
       H    -1.85728   10.92766   -2.14148
       O    -1.77474    9.96763   -2.28371
      H1    -2.59620    9.69391   -2.68073
       H    -0.50342    8.84028   -2.39076
       O     0.20806    8.18754   -2.33999
      H1     0.95244    8.68523   -1.96992
       H     0.22462    6.73723   -5.13999
       O     0.36539    7.69883   -5.14304
      H1     0.37643    7.89080   -4.19379
       H     0.70860    7.19875    0.28446
       O     1.37433    7.15096    0.97820
      H1     1.46821    6.21762    1.22451
       H    -3.48736    5.77260   -2.39668
       O    -2.99684    5.95422   -3.20843
      H1    -2.98407    5.07881   -3.62094

