60
frame 2 | Written by MDAnalysis XYZWriter (release 2.4.3)
       H    -6.03333   16.48787  -12.40102
       O    -5.29788   17.08002  -12.59287
      H1    -5.65856   17.58949  -13.32585
       H    -6.59279   15.70206  -10.19874
       O    -6.56771   15.29016  -11.05926
      H1    -6.62574   14.33785  -10.83318
       H    -7.57930   19.26388  -14.69488
       O    -7.46401   18.39125  -14.30185
      H1    -7.75439   18.55024  -13.40373
       H    -9.92844   18.30392   -7.01384
       O   -10.12330   17.47675   -7.48445
      H1   -10.82091   17.77716   -8.10374
       H    -7.58618   12.97022   -9.33901
       O    -7.25461   12.89249  -10.23797
      H1    -6.61306   12.18992  -10.15802
       H    -4.51644   15.36822  -13.14882
       O    -4.37531   14.48997  -13.47798
      H1    -3.61059   14.59895  -14.10015
       H    -8.46877   18.69599  -10.75336
       O    -7.50064   18.67716  -10.76594
      H1    -7.25108   18.01807  -10.10884
       H    -8.20962   17.21561   -8.15666
       O    -7.37410   16.95964   -8.55584
      H1    -6.77876   16.87073   -7.81960
       H   -12.21374   15.02549   -9.88185
       O   -11.66544   15.59691   -9.34965
      H1   -10.81806   15.63598   -9.79371
       H    -8.10625   14.26126   -6.78967
       O    -8.12513   14.02448   -7.74722
      H1    -9.02646   13.71986   -7.85777
       H    -8.06205   17.39880   -5.72496
       O    -8.11467   16.43706   -5.52140
      H1    -8.96049   16.20107   -5.86350
       H    -5.76036   15.29416   -6.54829
       O    -5.24622   15.81424   -7.19224
      H1    -4.66622   15.14676   -7.54701
       H   -10.79033   18.63926  -11.23405
       O   -10.64518   18.08881  -12.01279
      H1   -11.50275   17.70295  -12.28048
       H    -3.37036   14.59507  -10.43995
       O    -3.78272   14.69846   -9.58418
      H1    -4.26219   13.84833   -9.45252
       H    -2.99669   17.98933   -9.82794
       O    -2.11906   18.36505  -10.06864
      H1    -1.45327   17.66889  -10.04337
       H    -3.63329   16.42815   -6.52134
       O    -2.77640   16.72415   -6.25993
      H1    -2.65623   17.55687   -6.74533
       H    -4.41782   16.55328   -9.60017
       O    -4.71700   17.42365   -9.91862
      H1    -4.78047   17.19974  -10.85416
       H    -9.79951   16.87195  -11.37386
       O    -9.67721   15.96602  -11.02654
      H1    -8.72712   15.80867  -11.05444
       H   -11.34094   13.09691   -7.79285
       O   -10.77805   13.73743   -7.35392
      H1   -10.88332   14.47704   -7.95027
       H    -9.74527   14.20161  -11.56117
       O    -9.69992   13.38092  -12.07020
      H1    -9.95131   13.65444  -12.96787

