60
frame 2 | Written by MDAnalysis XYZWriter (release 2.4.3)
       H    16.44984   -0.31559  -10.39661
       O    16.49392    0.59447  -10.14342
      H1    15.69454    0.80338   -9.63817
       H    12.97815    4.62671   -6.81435
       O    12.15957    4.73535   -7.21709
      H1    11.53023    4.20127   -6.69507
       H    14.75791    4.19765  -11.26059
       O    14.14468    3.63908  -11.74138
      H1    14.73689    2.90207  -11.92808
       H    11.28711    1.85548  -12.59602
       O    11.82076    2.61668  -12.82537
      H1    12.60431    2.62515  -12.28118
       H    17.12213    5.66170   -8.75836
       O    17.21426    5.98694   -9.65857
      H1    17.82566    5.34725  -10.01989
       H    11.91904    7.61623  -14.80476
       O    12.02806    7.75590  -13.86674
      H1    11.76883    6.88613  -13.52909
       H    16.22101    5.94936  -13.83321
       O    16.48988    5.61136  -14.68990
      H1    17.41694    5.43474  -14.57428
       H    16.52193    4.46248   -7.15860
       O    16.34599    5.40841   -7.03045
      H1    15.62829    5.55370   -7.67893
       H    11.19223    5.55424  -11.94164
       O    12.10832    5.66453  -11.95402
      H1    12.44056    4.86583  -12.36442
       H    14.20814    6.59395   -9.18312
       O    14.16597    6.83826   -8.25385
      H1    13.24826    6.59241   -7.93073
       H    14.97051    3.20214  -16.72697
       O    14.94226    3.44893  -15.79910
      H1    15.77048    3.91753  -15.68759
       H    16.53131    6.44153  -11.21960
       O    16.24288    6.77522  -12.09044
      H1    15.34370    7.16116  -11.88161
       H    11.18611    6.00217   -8.31113
       O    10.68072    6.26351   -9.10598
      H1    10.58768    7.24084   -9.01478
       H    16.39964    1.11409  -12.05029
       O    16.36111    1.58645  -12.87764
      H1    16.44441    0.90039  -13.57269
       H    12.66018    3.34942   -9.96060
       O    12.14457    2.94469   -9.23795
      H1    12.12828    3.62480   -8.57554
       H    13.95533    8.53842  -11.98072
       O    13.87243    7.85331  -11.29545
      H1    13.20407    7.26346  -11.66505
       H    13.11291    0.64204   -8.81326
       O    13.65954   -0.14275   -8.85284
      H1    13.36041   -0.67458   -8.11734
       H    16.50911    2.03040   -7.86459
       O    15.63266    2.31094   -8.14839
      H1    15.13485    2.18853   -7.33334
       H    10.54684    2.98402  -11.78260
       O     9.83522    3.17061  -11.17455
      H1    10.26374    3.02983  -10.31351
       H    19.30633    2.70350  -12.70158
       O    18.57366    3.00416  -13.23811
      H1    17.84082    2.41048  -12.98951

