60
frame 2 | Written by MDAnalysis XYZWriter (release 2.4.3)
       H    -7.61272    8.05536  -10.35062
       O    -7.10757    8.70417  -10.80583
      H1    -7.78109    9.30063  -11.15100
       H    -7.94601    9.32326  -14.34600
       O    -8.67048    8.71651  -14.26338
      H1    -9.38758    9.17897  -14.68587
       H    -8.82482   11.02493  -12.31644
       O    -8.97794   10.23726  -11.76818
      H1    -9.26551    9.57837  -12.41963
       H    -6.24898   13.41020  -13.35497
       O    -6.89997   12.70609  -13.27940
      H1    -7.58632   13.10797  -12.74070
       H   -11.85881    8.67786  -16.07730
       O   -11.42482    9.01942  -15.29460
      H1   -11.71683    8.44495  -14.57473
       H    -9.22550    9.03828  -17.25932
       O    -9.73964    9.65044  -17.81291
      H1    -9.92217    9.18685  -18.61424
       H   -10.71958   12.66373  -17.31422
       O    -9.82521   12.34568  -17.36198
      H1    -9.97295   11.39769  -17.36802
       H    -9.80268    4.85847  -17.62154
       O   -10.33380    5.52751  -17.17592
      H1    -9.77164    6.28894  -17.04000
       H    -7.75974    7.22352  -17.92302
       O    -8.21897    7.18138  -17.05976
      H1    -7.50490    7.02496  -16.44798
       H    -9.48050    5.20321  -15.47789
       O    -8.83173    4.91649  -14.82026
      H1    -9.09534    5.29247  -13.97773
       H   -12.92764    7.33387  -12.49937
       O   -12.21657    7.36079  -13.16004
      H1   -11.50293    6.85859  -12.70824
       H    -6.77957   11.51682  -17.32713
       O    -7.22780   12.05601  -16.63802
      H1    -8.15523   12.08146  -16.96642
       H    -5.25832    9.17744  -15.23632
       O    -4.86403    8.61205  -15.91767
      H1    -5.33899    7.79914  -15.74970
       H    -9.62054    6.18500  -11.86016
       O    -9.87066    6.28589  -12.76161
      H1    -9.35524    7.01316  -13.08071
       H    -6.51872    7.14982  -11.80197
       O    -6.46924    6.22189  -12.12684
      H1    -6.24745    5.73125  -11.35326
       H   -12.31269    9.96974  -11.33032
       O   -11.62565    9.44005  -10.91518
      H1   -10.84422    9.96088  -10.88008
       H    -5.65199    9.93690  -13.13724
       O    -6.27751   10.03897  -13.87013
      H1    -6.59186   10.94174  -13.67434
       H    -6.18338    6.53327  -14.18180
       O    -6.39042    6.40530  -15.09817
      H1    -7.17672    5.82569  -15.05346
       H   -12.08559   10.61809  -14.25474
       O   -12.31301   11.55453  -14.42105
      H1   -11.47647   11.97332  -14.13450
       H    -8.40611   12.19628  -14.41014
       O    -9.26504   11.75742  -14.53199
      H1    -9.49965   11.93350  -15.45050

