60
frame 2 | Written by MDAnalysis XYZWriter (release 2.4.3)
       H   -10.19511   11.89196   13.13115
       O    -9.31362   12.24196   12.88662
      H1    -8.79284   12.24523   13.71396
       H   -11.34326    9.68930   17.80046
       O   -10.58420    9.63012   17.23059
      H1   -10.39158   10.53253   16.93484
       H   -10.05321   18.74776   16.19307
       O    -9.84268   18.42843   15.27641
      H1   -10.70788   18.57072   14.82040
       H    -8.88947   12.78679   17.60112
       O    -8.45209   13.32324   18.28572
      H1    -9.02802   13.18131   19.04951
       H    -5.97961   10.92612   18.13416
       O    -6.78670   10.61537   18.58351
      H1    -7.49339   11.15109   18.21121
       H    -7.48767   16.24904   17.88185
       O    -6.55962   16.00467   17.74664
      H1    -6.08922   16.52414   18.42742
       H    -6.09226   17.42635   15.05965
       O    -5.61045   17.62134   15.84429
      H1    -6.17403   17.19541   16.53564
       H    -5.46129   14.53111   18.26284
       O    -5.40717   13.63840   18.63809
      H1    -6.34457   13.52635   18.85296
       H    -7.38745   13.41350   14.78278
       O    -7.66784   12.51516   14.97466
      H1    -6.90167   11.94111   14.88282
       H   -13.72157   12.82194   17.17570
       O   -12.95317   13.21584   17.58553
      H1   -13.27631   13.72171   18.32275
       H    -9.32466   14.60250   17.51054
       O    -9.47233   15.50662   17.27355
      H1    -9.94607   15.41491   16.46124
       H   -14.58761   15.33804   15.74996
       O   -14.08401   15.69641   15.02787
      H1   -13.91164   14.94606   14.45035
       H   -11.98349   17.28508   18.54067
       O   -11.37314   16.56153   18.78505
      H1   -10.96344   16.30703   17.95174
       H   -11.00988   14.62512   11.50239
       O   -10.13437   14.67311   11.87492
      H1   -10.00367   13.83774   12.35117
       H   -12.91570   17.47104   13.35390
       O   -12.04624   17.90327   13.35445
      H1   -11.74137   17.78308   12.48289
       H    -9.58304   17.11357   13.90521
       O    -8.99191   16.49600   13.41029
      H1    -9.61055   15.89989   12.95760
       H    -5.89919   14.65887   11.48639
       O    -5.55832   15.05863   12.29127
      H1    -6.12149   14.74176   13.02810
       H    -9.25717   12.25850   15.72210
       O   -10.11203   12.13033   16.17100
      H1   -10.76087   12.51625   15.57045
       H   -12.06656   13.93695   16.46220
       O   -11.71815   14.65711   15.93934
      H1   -12.45894   15.09451   15.52047
       H    -6.76466   15.29016   15.63876
       O    -6.93889   15.01560   14.74076
      H1    -7.60971   15.67716   14.43698

