60
frame 2 | Written by MDAnalysis XYZWriter (release 2.4.3)
       H   -15.69345    0.92371   16.90169
       O   -15.57309    0.65752   17.81004
      H1   -14.76554    1.11984   18.06549
       H   -17.09451    3.98168   16.03682
       O   -16.82866    4.20076   15.11815
      H1   -15.87223    4.18509   15.17544
       H   -16.78786    7.75453   16.21239
       O   -15.87751    7.45338   16.36181
      H1   -15.99777    6.69922   16.92377
       H   -11.49211    2.69429   11.86139
       O   -11.57973    2.94973   12.75620
      H1   -12.22717    2.33548   13.11143
       H   -14.97090    2.20797   12.23348
       O   -15.66307    1.93450   12.85656
      H1   -15.54185    0.97711   12.84747
       H   -10.69542    4.40306   18.57622
       O   -11.41023    4.48402   17.90108
      H1   -11.01191    4.17568   17.07829
       H   -14.24594    1.85924   14.10240
       O   -13.36786    1.66074   14.38117
      H1   -13.51655    0.86717   14.87264
       H   -18.14446    5.48866   14.21692
       O   -18.70713    6.14837   13.77900
      H1   -19.63804    5.89609   14.01143
       H   -11.31027    4.73155   12.55600
       O   -10.75878    5.51061   12.65246
      H1   -10.10112    5.25166   13.30540
       H   -13.41889    4.78913   15.17994
       O   -13.84976    4.01128   15.58653
      H1   -13.29742    3.27074   15.20530
       H   -12.68886    9.04388   16.04808
       O   -13.42691    9.09912   15.40916
      H1   -13.97778    8.41086   15.77511
       H    -9.47785    3.23395   16.35468
       O    -9.86239    3.83232   15.71805
      H1    -9.42447    4.66431   15.89212
       H   -16.72917    4.76615   17.70678
       O   -17.47216    4.14642   17.70075
      H1   -18.21161    4.67501   17.88594
       H   -14.66911    7.50640   13.70499
       O   -15.43025    7.84015   13.19735
      H1   -16.15942    8.08056   13.75231
       H   -12.06833    6.15396   17.31396
       O   -12.68641    6.82837   17.06336
      H1   -13.49258    6.61222   17.48928
       H   -12.60424    6.54756   15.20712
       O   -12.85890    6.34511   14.32144
      H1   -12.06254    6.08371   13.80670
       H   -13.02678    3.63940   11.21683
       O   -13.89760    3.23285   11.12114
      H1   -14.46054    3.99055   11.04482
       H   -14.96159    5.24719   19.21453
       O   -14.98297    5.25218   18.25725
      H1   -14.38162    4.55281   18.04268
       H    -9.80074    2.17261   14.48206
       O    -9.11189    1.67468   13.98470
      H1    -9.32452    1.84515   13.04638
       H   -16.46572    1.72170   14.57428
       O   -16.64432    1.05869   15.24420
      H1   -17.32311    1.45804   15.78600

