60
frame 2 | Written by MDAnalysis XYZWriter (release 2.4.3)
       H     0.10983   17.94786    1.28433
       O    -0.78046   18.30247    1.30084
      H1    -0.62461   19.14007    0.87353
       H     4.04350   13.38742    0.73376
       O     3.25741   13.97692    0.80263
      H1     2.91993   13.94226   -0.09726
       H     5.39568   18.57332    5.46578
       O     6.00592   18.10896    6.03758
      H1     5.45060   17.46641    6.47140
       H     5.69119   17.14037    3.80288
       O     5.85928   17.87830    3.21810
      H1     5.00053   18.09262    2.81543
       H     5.81403   15.48711    1.08949
       O     6.60811   15.43560    1.62369
      H1     6.60662   16.22808    2.12819
       H     1.08160   18.78985   -2.16796
       O     0.47420   18.22527   -2.63029
      H1    -0.38089   18.34720   -2.20515
       H     1.46938   18.89652    4.50551
       O     2.18402   18.35672    4.84761
      H1     2.25417   18.66031    5.75640
       H     3.65576   13.78236    4.91497
       O     4.17893   14.57938    4.94779
      H1     3.52716   15.28311    4.83595
       H     5.85050   16.25679   -1.40879
       O     6.55422   16.32114   -2.07233
      H1     6.92503   17.21547   -1.93000
       H     3.43575   17.70985    7.49469
       O     2.73180   18.37888    7.52257
      H1     2.77251   18.73525    8.42423
       H     3.88532   15.78605    0.40394
       O     4.54755   16.36446   -0.00163
      H1     4.03277   17.03632   -0.45775
       H    -0.32534   15.34513    3.70946
       O    -1.08242   14.85338    3.36851
      H1    -1.57003   14.58074    4.17993
       H    -1.78885   17.88056    4.24437
       O    -1.99922   18.71162    3.76610
      H1    -1.65367   18.51263    2.88671
       H     7.67491   18.34459    3.27933
       O     8.61698   18.58707    3.39940
      H1     8.97410   18.14069    2.62619
       H     1.50860   15.20651    5.62069
       O     1.36207   14.66586    6.43500
      H1     2.20795   14.60840    6.86996
       H    -0.25951   14.61617   -0.20805
       O     0.22419   15.43654   -0.45841
      H1     0.30087   15.31942   -1.42860
       H     1.45472   16.16957    3.11817
       O     1.58088   15.95759    4.06854
      H1     1.89621   16.77244    4.41954
       H     4.15418   18.84104   -1.17230
       O     3.33144   18.34244   -1.20313
      H1     3.33691   18.01778   -2.12310
       H     2.22002   17.09621    1.24718
       O     1.39013   16.66017    1.50068
      H1     1.10136   16.17230    0.75617
       H     2.79227   18.84857    3.10962
       O     3.28369   18.52675    2.30883
      H1     3.19572   19.29633    1.73149

