60
frame 2 | Written by MDAnalysis XYZWriter (release 2.4.3)
       H    15.71692   17.43521   -1.76927
       O    15.45570   16.67016   -1.25352
      H1    15.02985   16.13085   -1.90946
       H    13.86061   10.29966   -3.40971
       O    14.22820   10.81604   -2.66859
      H1    14.99274   11.25159   -3.03941
       H    19.23516   11.32712   -4.23944
       O    19.25020   11.08489   -3.32632
      H1    18.39391   11.35772   -2.96123
       H    15.92016   11.15125    0.38650
       O    15.34949   11.56691   -0.28681
      H1    15.07642   10.87379   -0.86986
       H    18.01928   16.75400   -1.05837
       O    18.26760   17.65260   -1.31222
      H1    18.30993   17.53965   -2.25491
       H    14.96712   17.17443    2.75079
       O    15.34672   17.68441    3.48150
      H1    15.13485   17.16599    4.27000
       H    11.45028   16.47024   -1.86451
       O    12.29692   16.82137   -1.54659
      H1    12.45014   16.15820   -0.90372
       H    13.37612   12.09233   -2.20289
       O    12.75413   12.84563   -2.10447
      H1    13.16688   13.59444   -2.58915
       H    17.20719    9.41689    0.78416
       O    17.79507   10.14145    0.97339
      H1    17.40095   10.43960    1.79145
       H    16.58421   12.38418   -1.78330
       O    16.71988   12.13587   -2.72274
      H1    17.07812   12.93980   -3.11802
       H    13.63743   11.78277    0.07509
       O    12.84994   11.96570    0.60876
      H1    12.04337   11.67886    0.10859
       H    15.81891   19.36548   -4.01705
       O    15.88253   18.80520   -3.24641
      H1    15.30372   18.07717   -3.49680
       H    15.24644   14.65431   -3.44094
       O    14.43790   14.94205   -3.00185
      H1    14.07615   15.65147   -3.54443
       H    16.75273   14.80088   -5.09831
       O    16.65944   15.38016   -4.34896
      H1    17.54144   15.46322   -3.97772
       H    15.92056   14.16362    4.70860
       O    15.15787   14.53818    4.21982
      H1    14.72500   15.10836    4.85151
       H    16.89616   15.36331   -0.76806
       O    17.77456   15.11945   -0.45554
      H1    17.69249   14.96362    0.51159
       H    15.21944   11.83624    2.20532
       O    16.15202   11.96051    2.43491
      H1    16.17140   12.52557    3.19856
       H    17.04996   13.59336    1.98556
       O    17.38705   14.48393    2.16146
      H1    16.76856   14.76315    2.84436
       H    13.69246   15.90153    0.98906
       O    14.47587   16.37816    1.26399
      H1    14.85450   16.62293    0.40538
       H    16.76702   18.72492    3.43097
       O    17.50632   19.09277    2.94078
      H1    17.82413   18.30762    2.51984

