60
frame 2 | Written by MDAnalysis XYZWriter (release 2.4.3)
       H    -7.94601    9.32326  -14.34600
       O    -8.67048    8.71651  -14.26338
      H1    -9.38758    9.17897  -14.68587
       H    -8.82482   11.02493  -12.31644
       O    -8.97794   10.23726  -11.76818
      H1    -9.26551    9.57837  -12.41963
       H    -6.24898   13.41020  -13.35497
       O    -6.89997   12.70609  -13.27940
      H1    -7.58632   13.10797  -12.74070
       H   -11.85881    8.67786  -16.07730
       O   -11.42482    9.01942  -15.29460
      H1   -11.71683    8.44495  -14.57473
       H    -9.22550    9.03828  -17.25932
       O    -9.73964    9.65044  -17.81291
      H1    -9.92217    9.18685  -18.61424
       H   -11.35122   15.32061  -14.42467
       O   -10.95658   14.46515  -14.56323
      H1   -10.54241   14.56811  -15.43578
       H   -10.71958   12.66373  -17.31422
       O    -9.82521   12.34568  -17.36198
      H1    -9.97295   11.39769  -17.36802
       H    -5.24655    8.64409  -17.66402
       O    -5.52561    8.39958  -18.57525
      H1    -5.98350    9.23304  -18.79003
       H    -7.20079   16.76154  -15.78716
       O    -7.48665   15.91241  -16.12242
      H1    -6.61907   15.52491  -16.34653
       H    -3.49414   13.57846  -15.53376
       O    -2.59236   13.90264  -15.52310
      H1    -2.08745   13.18819  -15.15452
       H   -11.52918   10.39998  -17.39538
       O   -12.19374   11.05779  -17.51268
      H1   -12.56168   11.15859  -16.62660
       H    -7.75974    7.22352  -17.92302
       O    -8.21897    7.18138  -17.05976
      H1    -7.50490    7.02496  -16.44798
       H    -6.77957   11.51682  -17.32713
       O    -7.22780   12.05601  -16.63802
      H1    -8.15523   12.08146  -16.96642
       H    -5.25832    9.17744  -15.23632
       O    -4.86403    8.61205  -15.91767
      H1    -5.33899    7.79914  -15.74970
       H    -5.65199    9.93690  -13.13724
       O    -6.27751   10.03897  -13.87013
      H1    -6.59186   10.94174  -13.67434
       H   -10.45079   15.40112  -18.06546
       O    -9.97516   15.28035  -17.24754
      H1    -9.04046   15.26987  -17.52500
       H   -12.08559   10.61809  -14.25474
       O   -12.31301   11.55453  -14.42105
      H1   -11.47647   11.97332  -14.13450
       H    -5.07900   13.98415  -17.27201
       O    -5.30345   14.26598  -16.36431
      H1    -5.95087   13.58974  -16.14397
       H    -9.74527   14.20161  -11.56117
       O    -9.69992   13.38092  -12.07020
      H1    -9.95131   13.65444  -12.96787
       H    -8.40611   12.19628  -14.41014
       O    -9.26504   11.75742  -14.53199
      H1    -9.49965   11.93350  -15.45050

