60
frame 2 | Written by MDAnalysis XYZWriter (release 2.4.3)
       H   -14.49739   -5.80749   15.02852
       O   -14.36574   -4.86480   14.95387
      H1   -14.77465   -4.60242   14.09669
       H   -14.15771   -1.41739   15.74778
       O   -13.29230   -0.98843   15.51178
      H1   -12.60351   -1.67722   15.45789
       H   -15.69345    0.92371   16.90169
       O   -15.57309    0.65752   17.81004
      H1   -14.76554    1.11984   18.06549
       H   -11.49211    2.69429   11.86139
       O   -11.57973    2.94973   12.75620
      H1   -12.22717    2.33548   13.11143
       H   -14.97090    2.20797   12.23348
       O   -15.66307    1.93450   12.85656
      H1   -15.54185    0.97711   12.84747
       H   -17.11571   -2.19338   17.49015
       O   -17.97181   -2.05551   17.93154
      H1   -18.07761   -1.10345   18.03144
       H   -12.90424   -1.79559   12.22633
       O   -12.96000   -0.97247   12.74739
      H1   -12.87554   -1.30067   13.64068
       H    -9.49740    0.09079   13.44765
       O    -9.63265   -0.86040   13.47492
      H1    -9.38645   -1.11012   12.57383
       H   -12.83850   -0.55700   17.92091
       O   -12.55901   -1.31858   18.45079
      H1   -13.17502   -1.33356   19.20786
       H   -14.24594    1.85924   14.10240
       O   -13.36786    1.66074   14.38117
      H1   -13.51655    0.86717   14.87264
       H   -13.41889    4.78913   15.17994
       O   -13.84976    4.01128   15.58653
      H1   -13.29742    3.27074   15.20530
       H   -15.40597   -1.01093   17.27269
       O   -15.56510   -1.74767   16.67052
      H1   -15.05352   -2.48637   16.94383
       H   -10.64251   -2.17461   14.33116
       O   -11.21034   -2.58233   14.98051
      H1   -11.37989   -3.43620   14.53557
       H   -15.81467   -2.95797   12.66720
       O   -15.29371   -3.73950   12.77178
      H1   -15.36544   -4.19109   11.89425
       H   -17.33618   -1.54953   15.60564
       O   -17.82566   -1.43745   14.77882
      H1   -17.09094   -1.12674   14.21024
       H   -14.07785   -4.07622   16.49086
       O   -13.88570   -3.71663   17.34298
      H1   -13.31191   -2.97362   17.16763
       H   -14.89292   -0.95413   13.29738
       O   -15.80287   -0.93071   12.96780
      H1   -15.64863   -1.03077   12.02278
       H   -12.64970   -5.20365   14.63770
       O   -11.76407   -5.11545   14.23029
      H1   -11.30399   -5.83600   14.67504
       H    -8.91464   -2.07008   16.81785
       O    -8.93115   -2.94759   16.37467
      H1    -9.66719   -2.80682   15.78768
       H   -16.46572    1.72170   14.57428
       O   -16.64432    1.05869   15.24420
      H1   -17.32311    1.45804   15.78600

