60
frame 2 | Written by MDAnalysis XYZWriter (release 2.4.3)
       H    -2.39568   -9.12663  -16.86491
       O    -1.63197   -8.79667  -16.34543
      H1    -1.05726   -9.56749  -16.30722
       H    -8.02178  -11.60362  -16.49141
       O    -7.58419  -11.17802  -17.23248
      H1    -6.69084  -11.54950  -17.28843
       H    -0.19973   -7.85022  -17.04995
       O     0.70064   -7.60893  -17.20419
      H1     1.05381   -7.71981  -16.30787
       H     0.39812  -12.59631  -16.18585
       O     0.48115  -13.54701  -15.98598
      H1     1.26485  -13.79483  -16.50977
       H    -0.37329  -15.17880  -16.35387
       O    -0.80290  -15.98005  -16.68560
      H1    -1.02254  -16.45481  -15.88185
       H     0.20632  -14.54421  -14.00694
       O     0.27736  -15.25225  -13.36687
      H1    -0.36004  -15.90374  -13.66736
       H     1.58919  -16.11574  -17.93430
       O     1.94923  -15.29327  -18.30434
      H1     1.18426  -14.88202  -18.73658
       H    -4.63504  -15.64147  -15.51188
       O    -3.81785  -16.08814  -15.81311
      H1    -3.17510  -15.38084  -15.89517
       H    -2.75636   -8.45936  -14.80188
       O    -3.58603   -7.95346  -14.65826
      H1    -3.52479   -7.79961  -13.69981
       H    -1.97325  -10.00227  -13.58859
       O    -1.58424  -10.76789  -14.02529
      H1    -0.66748  -10.46931  -14.10635
       H    -1.04880  -11.84623  -12.62693
       O    -0.67639  -12.61845  -12.17737
      H1    -1.44950  -13.08129  -11.83679
       H    -7.28291   -9.69264  -17.70977
       O    -7.08161   -8.76938  -17.95249
      H1    -7.30236   -8.25915  -17.16129
       H    -2.51847  -12.14494  -14.85567
       O    -2.84684  -13.00596  -15.04571
      H1    -3.10718  -13.28183  -14.16927
       H    -4.15614  -10.08228  -17.85989
       O    -4.56790   -9.51799  -17.18466
      H1    -5.23498   -9.00508  -17.71898
       H    -4.30071  -11.98360  -14.76758
       O    -5.07805  -11.36136  -14.73345
      H1    -4.77116  -10.57083  -15.25741
       H    -2.82904  -14.47873  -19.19728
       O    -2.22309  -14.24833  -18.46935
      H1    -2.04368  -15.09121  -18.03231
       H    -6.76246  -15.50810  -15.80410
       O    -6.11764  -14.79018  -15.54032
      H1    -6.26105  -14.15779  -16.27634
       H    -3.24001  -11.37496  -18.77397
       O    -2.69898  -11.41277  -18.01252
      H1    -2.43207  -12.33459  -18.00369
       H    -4.56718  -13.14945  -17.69254
       O    -5.33551  -12.69440  -17.32635
      H1    -5.07635  -12.55031  -16.38130
       H     1.13137  -10.01388  -16.42051
       O     0.43057  -10.65880  -16.50870
      H1     0.15936  -10.59097  -17.44228

