60
frame 2 | Written by MDAnalysis XYZWriter (release 2.4.3)
       H     2.87669    8.72584   -2.42029
       O     2.54410    8.63853   -1.52535
      H1     2.83186    7.75351   -1.23254
       H     1.97703   12.03152   -2.63550
       O     1.20015   11.45114   -2.51197
      H1     0.42644   12.02157   -2.54760
       H     4.04350   13.38742    0.73376
       O     3.25741   13.97692    0.80263
      H1     2.91993   13.94226   -0.09726
       H     6.25304   10.63472   -2.29128
       O     7.20059   10.45126   -2.25281
      H1     7.36079   10.27673   -1.31880
       H     2.97643   13.72635   -2.90693
       O     3.49774   13.14187   -2.32649
      H1     4.37705   13.20532   -2.68627
       H     7.25976    8.87963   -4.06320
       O     7.67487    8.02383   -3.92921
      H1     8.53116    8.24918   -3.55586
       H     7.51369    7.93024   -0.76659
       O     7.22467    7.20093   -1.40279
      H1     7.27413    7.68219   -2.25406
       H     4.17781    5.67726   -1.59592
       O     4.31926    6.48313   -1.05561
      H1     5.13480    6.86176   -1.42558
       H     6.39509   13.39276   -0.46331
       O     6.09622   13.25280    0.44595
      H1     6.41557   13.99618    0.93762
       H     4.51426    7.46879    0.97299
       O     4.07655    7.96484    1.63524
      H1     3.20250    7.59659    1.60086
       H     4.53274   12.56514   -5.09141
       O     5.16793   12.84155   -4.40625
      H1     5.95662   12.93355   -4.93677
       H     4.34174    9.63735    1.42720
       O     4.45101   10.57925    1.36685
      H1     4.51693   10.71669    0.41777
       H     2.81718   10.13888   -4.64811
       O     3.40161    9.56518   -4.11399
      H1     3.29486    8.71196   -4.59636
       H     1.25445    9.67840    0.34585
       O     0.71852   10.47584    0.04699
      H1     1.20453   10.69821   -0.76319
       H     2.68711   12.83315    1.78306
       O     2.39741   12.04836    2.28482
      H1     3.02084   11.38916    1.96870
       H     5.89004    9.40203   -5.77262
       O     6.03575    9.89994   -4.96967
      H1     5.19894    9.93659   -4.50431
       H    -0.50342    8.84028   -2.39076
       O     0.20806    8.18754   -2.33999
      H1     0.95244    8.68523   -1.96992
       H     8.75675   12.18274   -4.23955
       O     7.83535   12.17009   -4.46528
      H1     7.45909   11.68322   -3.71742
       H     3.85458    9.86940   -1.38680
       O     4.42453   10.67952   -1.41400
      H1     3.84796   11.29917   -1.92655
       H     6.23390   10.39813    1.45456
       O     7.11077   10.82372    1.50536
      H1     7.06521   11.62118    0.95802

