60
frame 2 | Written by MDAnalysis XYZWriter (release 2.4.3)
       H   -16.40279   -0.98150   -1.80821
       O   -16.33505   -0.67303   -2.73061
      H1   -16.72661    0.21218   -2.69325
       H   -12.90023    3.52425   -4.63736
       O   -12.18851    4.16004   -4.60763
      H1   -11.91060    4.16505   -3.66795
       H   -15.13373    2.28527   -4.56892
       O   -14.35124    2.62381   -5.00457
      H1   -13.96618    1.88428   -5.51564
       H   -10.63879    2.91583   -2.94340
       O   -10.86290    3.41024   -2.14633
      H1   -10.38827    4.24070   -2.23790
       H   -14.03489    3.97768   -1.87157
       O   -13.59178    3.14926   -1.68257
      H1   -12.66193    3.21440   -1.93805
       H   -17.50422    2.43276   -2.89158
       O   -17.21500    1.73105   -3.47944
      H1   -17.70348    1.88725   -4.29297
       H   -13.97259    1.47400   -0.42050
       O   -13.64682    1.51006    0.46949
      H1   -13.47238    2.45870    0.63638
       H   -13.43747   -0.98852   -3.33077
       O   -13.35436   -1.94900   -3.36982
      H1   -12.40979   -2.09209   -3.56160
       H    -9.98582    2.86756   -0.64790
       O    -9.82285    2.59532    0.27688
      H1   -10.47058    1.87852    0.38753
       H    -9.04017   -1.31406   -1.38982
       O    -9.06788   -0.36185   -1.49824
      H1    -9.85136   -0.08846   -1.01431
       H   -12.02511    0.78339   -6.39016
       O   -12.71010    1.42439   -6.56843
      H1   -12.58649    1.66217   -7.49751
       H   -10.76939    0.54519   -4.47614
       O   -10.74624    1.04603   -3.63566
      H1   -10.13597    0.56150   -3.08657
       H   -14.75276    0.06933   -5.08809
       O   -14.94892   -0.46041   -5.87807
      H1   -14.18861   -0.29788   -6.45508
       H   -15.75819   -3.31741   -0.12353
       O   -15.76875   -2.34885   -0.31187
      H1   -14.89290   -2.02162   -0.02094
       H   -15.71808   -3.92176   -4.14846
       O   -15.90866   -3.57705   -3.25945
      H1   -16.00106   -2.60948   -3.38185
       H   -15.38632    1.75284    1.32387
       O   -16.05558    1.61922    1.99402
      H1   -16.13848    0.67164    1.96709
       H   -17.22201    3.45790   -0.95721
       O   -16.68551    3.83901   -1.65573
      H1   -16.23383    4.56742   -1.22701
       H   -13.22946   -1.48465   -1.34287
       O   -13.24778   -1.75257   -0.43458
      H1   -12.71833   -1.07988    0.03477
       H   -13.79374    1.37213   -2.43333
       O   -13.90599    0.40926   -2.34227
      H1   -14.83584    0.20449   -2.55498
       H   -12.10697    0.68349    0.50131
       O   -11.31113    0.20465    0.25788
      H1   -11.05052   -0.19354    1.08814

