60
frame 0 | Written by MDAnalysis XYZWriter (release 2.4.3)
       H   -16.68782   -2.68927    4.03946
       O   -17.36540   -2.29099    3.49941
      H1   -17.14341   -2.58849    2.61450
       H   -14.86663   -5.65498   -0.43137
       O   -15.60423   -5.51277    0.19128
      H1   -15.34686   -6.11305    0.92224
       H   -17.31553   -8.80760    0.11459
       O   -16.60596   -9.01560    0.76832
      H1   -16.47363   -9.94628    0.52195
       H   -15.08304   -3.55663    7.08565
       O   -15.26947   -2.71721    6.65148
      H1   -14.38488   -2.38672    6.35683
       H   -17.83996   -9.57701    3.85747
       O   -18.03862   -9.87262    2.96971
      H1   -17.48239   -9.31500    2.40884
       H   -15.09605   -8.16299    1.25737
       O   -14.69441   -7.49060    1.80110
      H1   -14.98863   -7.70272    2.69412
       H   -16.79797   -7.19795    4.28315
       O   -17.47289   -6.60792    3.92140
      H1   -18.16216   -6.73375    4.59638
       H   -15.35005   -2.30388    0.82439
       O   -16.08611   -2.89571    0.99954
      H1   -15.72267   -3.76083    0.76024
       H   -12.87533   -7.90417    1.96100
       O   -12.02203   -8.30518    1.82312
      H1   -12.26645   -9.23762    1.62052
       H   -12.81558   -6.15275    4.22138
       O   -12.89838   -6.92464    4.78739
      H1   -12.13857   -7.47982    4.57224
       H   -15.83555   -8.30777    8.21725
       O   -15.25581   -8.14466    7.46051
      H1   -15.75573   -8.46919    6.71832
       H   -18.25321   -6.68892    2.33549
       O   -18.88041   -6.56878    1.58619
      H1   -18.30862   -6.52546    0.81417
       H   -14.43019   -7.67939    4.60431
       O   -15.24254   -8.18002    4.49204
      H1   -14.88513   -9.05632    4.23350
       H   -16.98005   -6.08480   -0.65490
       O   -17.71108   -6.60130   -1.09100
      H1   -18.36914   -5.91863   -1.23596
       H   -19.27674   -4.09527   -0.29608
       O   -18.48711   -3.94903   -0.85155
      H1   -17.81376   -3.88159   -0.17532
       H   -17.29154  -13.03932    2.80747
       O   -18.19019  -12.70456    2.86363
      H1   -18.11502  -11.72261    2.92078
       H   -18.28467  -10.15059    6.02394
       O   -18.13989   -9.26230    5.65098
      H1   -18.93031   -9.11273    5.13744
       H   -17.73351   -5.95041   10.10886
       O   -18.06271   -6.08814    9.19557
      H1   -18.55653   -5.24187    9.06576
       H   -16.48923   -5.10491    4.33633
       O   -15.91344   -4.33144    4.46372
      H1   -15.86340   -4.27435    5.42552
       H   -15.50871   -6.37355    7.25712
       O   -15.46804   -5.41821    7.42198
      H1   -16.34446   -5.22317    7.76091

