60
frame 2 | Written by MDAnalysis XYZWriter (release 2.4.3)
       H   -12.93531   12.26554   -6.27826
       O   -13.50759   12.67768   -5.62049
      H1   -12.96705   12.57929   -4.81929
       H   -15.16152   15.57773   -9.88494
       O   -15.85550   15.48400  -10.53483
      H1   -15.41995   15.18558  -11.33898
       H   -17.96685   15.50171   -3.93318
       O   -18.73733   15.54883   -3.36701
      H1   -18.79700   14.68826   -2.91937
       H   -14.92291   11.00095   -5.36687
       O   -15.08386   10.09619   -5.70186
      H1   -15.95167   10.17761   -6.15042
       H   -11.38256   11.22917   -8.78786
       O   -12.23249   11.68920   -8.58634
      H1   -12.80131   10.95389   -8.32603
       H   -17.72001   12.92020   -5.46079
       O   -18.07593   12.08281   -5.80299
      H1   -17.81263   12.05476   -6.72650
       H   -13.80376    9.73775   -7.03953
       O   -13.31614    9.40642   -7.78154
      H1   -12.47306    9.08495   -7.38420
       H   -15.01756   12.96062   -2.12615
       O   -14.48871   12.30099   -1.60673
      H1   -14.43061   12.74172   -0.74225
       H   -16.30767    7.87840   -3.26778
       O   -16.32634    8.84207   -3.19675
      H1   -15.87096    9.06299   -4.00634
       H   -16.70643   17.31829   -7.98889
       O   -16.50061   17.36736   -7.00709
      H1   -16.91507   18.16851   -6.72650
       H   -14.47159   14.37983   -7.41818
       O   -14.22533   15.00262   -8.10554
      H1   -14.29965   15.85461   -7.61250
       H   -16.32706   14.43128   -2.19107
       O   -15.57860   14.73496   -2.76365
      H1   -15.60272   15.68597   -2.62892
       H   -17.90780   11.33904  -11.95005
       O   -16.95129   11.31482  -11.75809
      H1   -16.81884   10.36701  -11.55390
       H   -17.88526   12.29756   -2.05471
       O   -17.82965   13.06340   -1.47159
      H1   -17.33592   12.65916   -0.72672
       H   -14.44040   12.33853  -10.23717
       O   -15.12931   11.71578   -9.92174
      H1   -15.77703   11.62835  -10.63107
       H   -16.73152    7.70051   -6.71810
       O   -17.40249    8.36188   -6.91991
      H1   -17.34021    8.44753   -7.88052
       H   -16.54771   15.60789   -5.80445
       O   -16.90072   15.01142   -5.13947
      H1   -16.19239   15.04081   -4.46901
       H   -13.94848   15.03862   -4.26430
       O   -13.19301   15.14002   -4.81614
      H1   -13.13371   14.33693   -5.36847
       H   -17.08869   13.45373   -8.81625
       O   -16.85874   12.75987   -8.16233
      H1   -16.14687   12.29037   -8.63180
       H   -18.79872    8.71932   -9.06665
       O   -17.97975    8.62976   -9.54285
      H1   -17.71942    7.71786   -9.29116

