60
frame 2 | Written by MDAnalysis XYZWriter (release 2.4.3)
       H   -14.86048    9.41059   12.48358
       O   -14.42191   10.23341   12.35363
      H1   -14.78565   10.61555   11.52667
       H    -7.35665   10.58323   10.93757
       O    -7.23489   11.31025   11.59244
      H1    -8.05073   11.21982   12.10020
       H   -10.19511   11.89196   13.13115
       O    -9.31362   12.24196   12.88662
      H1    -8.79284   12.24523   13.71396
       H   -11.86131   11.20498    9.90744
       O   -11.96510   11.88747    9.25720
      H1   -12.36520   11.43630    8.52552
       H   -11.34326    9.68930   17.80046
       O   -10.58420    9.63012   17.23059
      H1   -10.39158   10.53253   16.93484
       H    -9.30843    8.26375   11.66324
       O    -8.77081    8.99093   12.01537
      H1    -8.97854    8.99299   12.92633
       H   -12.10465   11.07882   12.95435
       O   -12.31576   11.58484   13.73870
      H1   -12.79177   10.89034   14.25421
       H    -9.39433   15.80982    9.26151
       O   -10.21140   15.28384    9.19254
      H1   -10.32094   14.93807   10.05722
       H    -9.57915   11.59020    8.65010
       O    -8.60303   11.62993    8.46914
      H1    -8.37286   10.76630    8.13826
       H   -11.54123    9.54394   11.39624
       O   -11.31940   10.45356   11.64833
      H1   -10.38808   10.34216   11.88646
       H    -7.38745   13.41350   14.78278
       O    -7.66784   12.51516   14.97466
      H1    -6.90167   11.94111   14.88282
       H   -10.24309    8.64759   15.52371
       O   -10.31222    8.15638   14.70009
      H1   -11.24415    8.23318   14.51370
       H   -13.38081    8.93937   10.29044
       O   -13.06715    8.34498   10.98886
      H1   -13.42104    8.81651   11.80134
       H   -13.85808   12.71248   12.88225
       O   -14.37619   13.49696   12.71597
      H1   -13.98497   13.82632   11.91070
       H   -13.26057   14.66344   10.15418
       O   -12.77999   14.03929   10.71645
      H1   -12.28796   13.48545   10.07884
       H   -11.00988   14.62512   11.50239
       O   -10.13437   14.67311   11.87492
      H1   -10.00367   13.83774   12.35117
       H    -9.58304   17.11357   13.90521
       O    -8.99191   16.49600   13.41029
      H1    -9.61055   15.89989   12.95760
       H    -6.77591   13.63851    9.39107
       O    -6.82517   13.65166   10.36124
      H1    -6.97590   12.72091   10.61697
       H    -9.25717   12.25850   15.72210
       O   -10.11203   12.13033   16.17100
      H1   -10.76087   12.51625   15.57045
       H   -12.06656   13.93695   16.46220
       O   -11.71815   14.65711   15.93934
      H1   -12.45894   15.09451   15.52047

