60
frame 2 | Written by MDAnalysis XYZWriter (release 2.4.3)
       H     8.54585   11.07963   12.58432
       O     9.22245   10.53738   13.03066
      H1     9.72844   11.18058   13.57385
       H     5.40546    7.80915   17.16232
       O     5.49617    7.19228   16.42595
      H1     5.76867    7.72004   15.66649
       H     2.93070   13.56439   13.86542
       O     3.31888   14.35436   14.25928
      H1     3.08616   14.24996   15.18056
       H     3.17018   14.10462   17.72973
       O     3.67530   13.55021   17.17025
      H1     4.60918   13.71263   17.39523
       H     8.14629    9.15000   18.59560
       O     8.00079   10.02909   18.23217
      H1     8.23374    9.98060   17.31184
       H     9.01375    9.85315   15.12197
       O     8.77199    9.08365   15.65134
      H1     9.62593    8.67645   15.84798
       H     6.64017    7.91007   13.53631
       O     6.40371    8.45512   14.30227
      H1     7.26204    8.64483   14.73293
       H     2.97749   14.02079   10.44682
       O     3.80816   13.58923   10.68980
      H1     4.35718   14.34137   11.06061
       H     4.38712   11.74840   14.63743
       O     5.31149   11.65592   14.86524
      H1     5.78513   11.85885   14.06053
       H     5.91702   12.98416   15.98180
       O     6.31481   13.80814   16.21626
      H1     5.59786   14.41433   15.99791
       H     8.32377   14.03581   10.90444
       O     7.62633   13.40293   10.63334
      H1     7.95480   12.95857    9.83348
       H     2.53427   11.74886   13.11000
       O     1.96865   11.95835   13.86461
      H1     1.13628   12.33500   13.51205
       H     6.33580   10.26551   17.65187
       O     5.52849    9.97210   17.22189
      H1     5.40795   10.59221   16.49977
       H     6.26571   14.50926   13.33495
       O     5.60645   14.76425   12.65777
      H1     4.85758   14.23529   12.85957
       H     3.18502   11.76937   17.21455
       O     2.94317   10.87666   17.49041
      H1     3.72018   10.32948   17.44761
       H     4.77530   16.65447   16.00297
       O     5.33257   16.24002   15.34993
      H1     4.65804   16.08371   14.64586
       H     3.69886   10.43454   11.46965
       O     4.22252   11.06713   12.00366
      H1     4.09531   11.91578   11.55044
       H     8.44510   14.25016   14.14144
       O     7.84941   15.01270   14.23280
      H1     7.40967   14.89053   15.08231
       H     7.01259   12.49850   11.99539
       O     6.78856   11.73567   12.51783
      H1     5.93076   11.48094   12.18563
       H     4.97105    9.24685    9.45169
       O     5.66898    9.87533    9.68796
      H1     5.47431   10.22528   10.55289

