60
frame 0 | Written by MDAnalysis XYZWriter (release 2.4.3)
       H    14.14120  -17.38453    1.92484
       O    14.97313  -17.62039    1.45093
      H1    14.59510  -17.94054    0.61380
       H    17.95846  -17.48063    2.63280
       O    17.80683  -17.25101    1.73197
      H1    16.84217  -17.41353    1.71000
       H     9.60361  -13.19473    4.46697
       O     9.81854  -13.92663    3.86254
      H1     8.96966  -14.07064    3.44771
       H    14.11705  -15.31753    5.55235
       O    13.66319  -14.80736    6.22887
      H1    13.60587  -15.32020    7.01529
       H     8.78939  -18.42419    2.09840
       O     9.07575  -18.47028    1.18680
      H1     9.29251  -17.54886    0.90165
       H     9.10030  -18.69396    6.90307
       O     8.47597  -18.14015    7.36838
      H1     8.54516  -18.45312    8.27610
       H    17.27415  -17.32670    8.47730
       O    16.53568  -16.74132    8.24357
      H1    16.88190  -15.89997    8.54741
       H    11.84945  -17.75505    9.57006
       O    11.94152  -18.10298    8.65800
      H1    12.78042  -18.56746    8.67329
       H    15.06185  -18.19065    5.58042
       O    15.84389  -18.47543    6.06904
      H1    16.09674  -17.72142    6.61627
       H    11.22076  -17.16898    3.19462
       O    10.79709  -17.20483    4.04724
      H1    10.56340  -16.30672    4.28652
       H    12.58982  -18.38881    5.14394
       O    13.46735  -18.18934    4.82940
      H1    13.34499  -17.29762    4.41987
       H     9.47437  -16.63958    6.64418
       O     9.60432  -15.82820    6.17668
      H1     9.97663  -15.22907    6.83599
       H    11.57394  -15.71874    8.57647
       O    11.01221  -14.94358    8.64624
      H1    10.28559  -15.24897    9.24408
       H    13.42693  -17.10050    8.41228
       O    13.95038  -16.31236    8.59872
      H1    14.89905  -16.50808    8.40754
       H    11.42215  -13.46002    3.51985
       O    12.34727  -13.53572    3.25362
      H1    12.74621  -12.67385    3.37791
       H     8.45770  -19.03568    3.66505
       O     8.36606  -18.07793    3.60809
      H1     9.29200  -17.89006    3.81317
       H    12.38021  -16.75884    1.36633
       O    12.34817  -17.53971    1.89489
      H1    12.16165  -18.26063    1.30002
       H    17.43023  -18.33491    4.94692
       O    18.08373  -17.85262    4.41992
      H1    18.74143  -18.51090    4.10738
       H    13.43230  -15.17996    3.24233
       O    14.14918  -15.76122    3.55463
      H1    14.99646  -15.29195    3.35325
       H    10.98461  -18.12129    5.51992
       O    11.16401  -18.91607    6.06649
      H1    11.32785  -18.55453    6.92328

