60
frame 4 | Written by MDAnalysis XYZWriter (release 2.4.3)
       H    14.48445    4.47938    5.70827
       O    14.64730    3.69482    5.14084
      H1    13.76312    3.69025    4.67002
       H    17.18575    1.15540    1.42260
       O    17.51416    1.70111    0.76160
      H1    18.51417    1.63271    0.76028
       H    16.56152   -2.00632   -1.55720
       O    16.57735   -1.54685   -2.39775
      H1    16.64806   -0.57156   -2.21091
       H    14.28045   -3.68762    5.24785
       O    14.52817   -2.79607    5.57128
      H1    15.45149   -2.67830    5.31108
       H    14.41360    0.24226    0.42161
       O    14.00388    0.99753   -0.02959
      H1    14.72007    1.50015   -0.42739
       H    15.79664    0.81208    3.37138
       O    16.48622    0.36476    2.87816
      H1    15.96461   -0.25757    2.30071
       H    12.13977   -1.96220    2.29713
       O    11.39168   -2.06539    1.70227
      H1    11.18590   -3.01984    1.97644
       H    17.13597   -0.92244    4.06029
       O    17.24725   -1.85169    4.25614
      H1    17.73360   -1.96837    5.05893
       H    15.89711   -3.82992    0.33304
       O    14.91090   -3.84829    0.25141
      H1    14.84787   -3.45317   -0.65107
       H    19.13444    0.34535    6.18119
       O    18.33137    0.69729    5.79001
      H1    18.19134    1.52499    6.29923
       H    12.68682    0.48177   -1.17957
       O    12.03792    0.45649   -1.89825
      H1    11.63091   -0.46000   -1.88560
       H    19.28086   -3.59049    2.86876
       O    18.32909   -3.59789    2.68381
      H1    17.92275   -2.85598    3.21503
       H    12.05289    1.43583    1.27193
       O    11.30876    1.50144    1.87697
      H1    10.68114    2.12925    1.47914
       H    13.72550   -1.77903    4.49794
       O    13.23818   -1.41769    3.72211
      H1    13.01151   -0.48348    3.87333
       H    16.79875    1.74461   -0.82877
       O    16.27094    1.64456   -1.66259
      H1    16.61315    2.29829   -2.29646
       H    14.97807   -1.98709    0.90136
       O    14.62893   -1.19278    1.27694
      H1    14.33639   -1.41760    2.14070
       H    18.55175   -2.44444   -0.13715
       O    17.81897   -3.00890    0.14245
      H1    18.15112   -3.06363    1.08105
       H    17.32829    3.34016    2.10869
       O    17.10175    4.27183    2.13202
      H1    17.34569    4.56955    3.02931
       H    15.63202    1.19314    6.13847
       O    14.96688    1.07471    5.41338
      H1    14.82152    2.00525    5.33142
       H    11.05878   -0.20278    4.77949
       O    11.54382    0.68139    4.67230
      H1    11.31446    0.91193    3.75048

