60
frame 2 | Written by MDAnalysis XYZWriter (release 2.4.3)
       H     1.52316   -6.43994   12.23744
       O     1.78723   -5.74368   11.56485
      H1     1.32371   -5.98451   10.76474
       H     4.18670   -5.25476    3.79234
       O     4.04137   -6.07788    3.29489
      H1     4.54754   -5.88592    2.48283
       H    -0.83435   -5.35137    5.64019
       O    -0.76831   -5.84348    6.45961
      H1    -0.20047   -6.62724    6.25964
       H     5.31477   -1.12280    9.97731
       O     5.94596   -1.30981   10.67744
      H1     5.41604   -1.30385   11.51143
       H     1.05198   -3.17994    8.02765
       O     0.10888   -3.46620    8.10181
      H1     0.12173   -4.25763    7.51953
       H     3.54396   -6.64101   11.14330
       O     4.11841   -7.21063   11.64637
      H1     4.37875   -7.91431   11.05357
       H     2.57786   -4.89433    8.66450
       O     3.33945   -4.64296    8.16471
      H1     4.09007   -5.08122    8.58855
       H     0.34105   -6.24313    8.90171
       O     1.28990   -6.20171    9.00445
      H1     1.61589   -7.07445    8.74112
       H     2.19537   -1.00356    8.37248
       O     2.48479   -1.89719    8.57277
      H1     3.40777   -1.93632    8.29377
       H     0.44122   -8.90466    6.08888
       O     0.77572   -7.99265    6.26628
      H1     1.13781   -7.69828    5.41975
       H     7.92549   -2.61446    9.23535
       O     7.53294   -3.04849    8.43757
      H1     6.64490   -2.66945    8.40401
       H     6.41841   -5.94237   10.90462
       O     6.54034   -6.16621   11.82786
      H1     5.69949   -6.55413   12.06633
       H     2.49973   -0.36960    6.90862
       O     2.77512   -0.17470    6.02626
      H1     3.20946    0.69451    6.15993
       H     5.72106   -5.89208    8.37715
       O     5.98087   -5.35100    9.14947
      H1     6.65655   -4.75944    8.80536
       H     1.96396   -3.73622   10.95102
       O     2.36639   -2.88956   11.21458
      H1     2.38236   -2.33681   10.44740
       H     4.84390   -3.62089    5.57350
       O     4.21847   -4.35377    5.52597
      H1     3.81675   -4.34200    6.41023
       H     2.53448   -8.38104    6.91413
       O     3.36268   -8.72305    7.24838
      H1     3.99820   -8.01159    7.10018
       H     5.10128    0.00091    8.02630
       O     5.06592   -0.95634    8.03475
      H1     5.71422   -1.16575    7.31639
       H    -1.92251   -5.14223   10.32690
       O    -1.31410   -5.43744    9.65070
      H1    -1.17163   -4.67355    9.06967
       H     4.85481   -6.21235    6.34900
       O     5.23539   -6.84496    6.96306
      H1     6.12952   -7.03101    6.61465

