60
frame 2 | Written by MDAnalysis XYZWriter (release 2.4.3)
       H   -10.19258  -18.38332   18.18706
       O   -10.89247  -18.25877   17.54604
      H1   -11.67353  -18.61522   17.98873
       H   -11.45124  -12.50236   17.79330
       O   -11.11962  -11.66992   17.38581
      H1   -10.85799  -11.95998   16.49943
       H   -12.82335  -13.94850   14.74148
       O   -12.33180  -13.61683   13.98782
      H1   -12.96828  -13.01685   13.62033
       H   -11.09243  -17.51737   11.77124
       O   -10.53995  -18.29324   11.51586
      H1    -9.70746  -18.14405   11.98166
       H   -14.15150  -13.77862   16.52816
       O   -14.19419  -14.70400   16.21721
      H1   -14.99663  -14.68214   15.67196
       H   -15.98754  -16.55772   13.12641
       O   -15.60716  -16.17736   13.93873
      H1   -14.71318  -15.94856   13.67546
       H    -9.56870  -15.72203   15.37719
       O    -8.73230  -15.69641   14.92164
      H1    -8.51146  -14.74768   14.74858
       H    -7.84687  -15.18343   17.37944
       O    -7.16494  -15.53274   17.99306
      H1    -6.65762  -16.19870   17.47391
       H   -11.23824  -15.04477   17.72364
       O   -11.47425  -14.38983   18.35893
      H1   -10.73782  -14.46717   18.96774
       H   -11.54994  -16.82119   15.88509
       O   -11.48733  -15.87300   15.72928
      H1   -11.94348  -15.78038   14.89130
       H   -10.98830  -11.83557   14.26366
       O   -10.18380  -11.68689   14.80063
      H1   -10.05577  -10.73466   14.75513
       H   -16.92545  -18.72824   15.59668
       O   -16.05195  -18.53780   15.19451
      H1   -16.12884  -17.67036   14.80415
       H   -14.26498  -14.94820   10.91126
       O   -14.11976  -14.24346   11.56115
      H1   -13.24377  -13.93223   11.31829
       H   -12.97217  -16.62617   10.56302
       O   -13.61295  -17.32185   10.81656
      H1   -13.05573  -18.00008   11.22328
       H   -13.33004  -17.94888   14.93190
       O   -13.15492  -17.73299   13.99254
      H1   -12.99365  -18.60524   13.63987
       H   -16.12142  -14.32094   13.00001
       O   -17.00350  -13.97309   13.04539
      H1   -17.47321  -14.59859   13.57988
       H   -11.79534  -14.92250    9.59806
       O   -11.52024  -15.67918   10.11256
      H1   -11.17929  -15.31248   10.94018
       H    -8.22438  -17.23275   13.72399
       O    -8.52791  -18.04604   13.35545
      H1    -9.03326  -18.47359   14.05451
       H    -9.85425  -15.70654   12.93342
       O   -10.70082  -15.48150   12.54875
      H1   -11.01447  -14.74260   13.08082
       H   -14.73016  -17.74488   16.15662
       O   -14.17466  -17.45183   16.84907
      H1   -13.99970  -16.52987   16.56809

