60
frame 0 | Written by MDAnalysis XYZWriter (release 2.4.3)
       H    16.36602    0.06482   -4.85557
       O    15.97262    0.93409   -4.70413
      H1    15.40008    0.76515   -3.92913
       H    14.68307   -2.55877   -4.20127
       O    15.10455   -2.87028   -3.39121
      H1    15.03414   -3.84317   -3.46472
       H    17.33803   -5.08776   -5.07257
       O    17.50380   -4.15234   -4.99713
      H1    18.28431   -4.14741   -4.43146
       H    17.47176   -8.73660   -5.86464
       O    17.57555   -9.57911   -6.29682
      H1    18.32575   -9.40575   -6.91565
       H    16.41550   -1.94707   -2.40479
       O    17.07175   -1.32923   -2.09373
      H1    16.67098   -0.49826   -2.39504
       H    16.91076   -5.02656   -8.93176
       O    15.96752   -4.88288   -9.13984
      H1    15.90428   -4.15997   -9.79092
       H    18.37750   -1.43968   -8.13834
       O    17.66133   -1.85054   -7.62821
      H1    17.96422   -1.70170   -6.71925
       H    18.46598   -8.77999  -10.27002
       O    18.65021   -7.87033  -10.53378
      H1    18.66107   -7.43203   -9.66588
       H    14.60364   -7.23513   -1.03356
       O    15.46686   -7.64583   -1.13760
      H1    15.91817   -7.42631   -0.30542
       H    17.11713   -7.31491   -4.43743
       O    16.86192   -7.02109   -5.34467
      H1    16.00460   -7.39077   -5.51220
       H    13.77406   -3.71607   -6.36804
       O    13.84476   -2.78396   -6.07582
      H1    14.27311   -2.32524   -6.82583
       H    15.39235   -6.22392   -4.36892
       O    14.67114   -5.92615   -3.80485
      H1    14.90161   -6.26085   -2.93180
       H    15.11605   -1.93069   -9.25470
       O    15.06326   -1.27389   -8.51422
      H1    15.88122   -1.44325   -7.98479
       H    17.02863   -2.36921   -4.72171
       O    17.28481   -1.46830   -5.03055
      H1    18.18730   -1.39883   -4.65699
       H    15.39913   -6.89247   -9.57293
       O    15.02076   -7.67934   -9.99012
      H1    15.25952   -8.43496   -9.44654
       H    17.97297   -8.68440   -2.63919
       O    17.19195   -8.53921   -3.18833
      H1    16.55485   -8.37881   -2.47766
       H    14.46036   -5.07785   -7.85671
       O    13.77328   -5.25016   -7.19185
      H1    13.87829   -6.17223   -6.95320
       H    18.55204   -5.16316   -7.69544
       O    18.12164   -6.00398   -7.97060
      H1    17.85857   -6.36319   -7.08681
       H    12.61599   -6.28892   -3.92347
       O    11.70357   -6.36455   -4.19233
      H1    11.72353   -6.85154   -5.04098
       H    14.33918   -8.18793   -5.62392
       O    14.58092   -7.88195   -6.53577
      H1    14.71302   -8.69486   -7.02980

