60
frame 2 | Written by MDAnalysis XYZWriter (release 2.4.3)
       H    -8.70065    5.50600   -1.40887
       O    -9.49716    6.00682   -1.23369
      H1    -9.26812    6.82644   -1.72317
       H   -12.87091    6.23950   -0.98151
       O   -12.17366    5.91145   -0.41141
      H1   -11.42179    5.84746   -1.03933
       H   -11.04506    7.13994    5.12478
       O   -10.50500    7.51451    4.42173
      H1    -9.65716    7.11959    4.55536
       H   -10.63879    2.91583   -2.94340
       O   -10.86290    3.41024   -2.14633
      H1   -10.38827    4.24070   -2.23790
       H   -14.29467    4.15732    1.29877
       O   -13.36351    3.98414    1.43879
      H1   -12.89886    4.74317    0.99478
       H   -13.55935    3.73881    4.58551
       O   -13.58644    4.52770    4.00679
      H1   -13.55953    4.14068    3.12010
       H    -7.76216    6.23881    2.84210
       O    -7.81495    6.70080    3.71908
      H1    -8.24672    7.53944    3.44525
       H   -11.13479    4.50038    5.37952
       O   -11.52129    5.30244    5.70411
      H1   -12.26393    5.45647    5.12160
       H   -10.47520    1.72009    4.86408
       O   -11.41523    2.01356    4.97008
      H1   -11.65773    1.67558    5.84502
       H    -7.97730    0.45048    0.13244
       O    -7.27487    0.29612    0.78007
      H1    -6.69082   -0.33402    0.35093
       H    -8.35845    1.88759    3.83639
       O    -8.61860    1.47065    4.66308
      H1    -8.41369    2.11290    5.36480
       H   -13.97259    1.47400   -0.42050
       O   -13.64682    1.51006    0.46949
      H1   -13.47238    2.45870    0.63638
       H   -13.19907    1.44010    4.51086
       O   -13.97076    1.06423    4.07243
      H1   -14.60127    0.94782    4.78206
       H    -9.98582    2.86756   -0.64790
       O    -9.82285    2.59532    0.27688
      H1   -10.47058    1.87852    0.38753
       H    -8.54039    4.30149    5.93221
       O    -8.65412    3.71100    6.67076
      H1    -8.69860    4.30646    7.43374
       H    -8.34982    6.12234    0.44827
       O    -7.97525    5.58745    1.12925
      H1    -8.73715    5.12393    1.50987
       H    -7.20659    3.49097    2.20787
       O    -7.96751    2.90648    2.31332
      H1    -8.20118    2.74694    1.40450
       H   -11.41072    4.38129    2.16655
       O   -10.44959    4.55698    2.29463
      H1   -10.03800    3.69397    2.18847
       H   -11.22815    7.40364    2.31757
       O   -11.62494    7.80750    1.52209
      H1   -11.63608    7.06134    0.89910
       H   -12.10697    0.68349    0.50131
       O   -11.31113    0.20465    0.25788
      H1   -11.05052   -0.19354    1.08814

