60
frame 2 | Written by MDAnalysis XYZWriter (release 2.4.3)
       H     0.54722  -13.45247    8.85318
       O     1.38942  -13.51564    9.30406
      H1     1.65078  -14.44780    9.24872
       H     3.74241  -13.25828   13.87574
       O     4.40704  -12.61012   14.19002
      H1     5.18119  -13.11444   14.44833
       H     1.03456   -8.18072   13.39611
       O     1.35344   -7.37795   13.83485
      H1     2.20745   -7.65504   14.18938
       H     1.68343  -14.44687   14.22175
       O     2.38450  -14.30735   13.57763
      H1     1.84293  -13.73664   13.03250
       H     1.14400  -12.84537   10.94467
       O     0.92358  -12.71978   11.86653
      H1     0.76238  -11.77862   11.82802
       H     4.44377  -11.26239   13.03614
       O     4.41051  -10.47608   12.47732
      H1     4.34126  -10.88813   11.59079
       H     2.69848  -10.95934    8.55070
       O     3.20367  -11.63938    8.08793
      H1     2.56812  -12.36504    7.92545
       H    -1.99687   -8.96809   11.89581
       O    -2.22234   -9.70273   11.34145
      H1    -1.56443   -9.66375   10.60060
       H    -0.67638  -14.98612   14.92173
       O    -0.05380  -14.28153   15.11065
      H1    -0.02819  -14.23783   16.07224
       H    -0.96625  -12.60134   11.72264
       O    -1.78320  -12.44190   11.31200
      H1    -1.93379  -11.50453   11.51577
       H     1.84461   -9.78997   10.77162
       O     1.94718   -9.30920    9.91711
      H1     2.92340   -9.20096    9.97804
       H    -1.20394  -11.78169    8.22266
       O    -0.67522  -12.36177    7.66683
      H1    -1.29070  -13.05465    7.37996
       H    -1.70126  -14.92754    9.98209
       O    -1.81842  -14.46669    9.14339
      H1    -2.14852  -13.61315    9.42652
       H    -4.55570  -11.62409   12.52019
       O    -4.26677  -12.51752   12.34739
      H1    -3.33293  -12.44658   12.10683
       H    -1.54946   -9.54382   15.57635
       O    -0.68435   -9.65325   15.97330
      H1    -0.32209  -10.38523   15.46023
       H     3.72863  -12.41224    9.72858
       O     4.12536  -12.78691   10.52850
      H1     4.57380  -13.59701   10.20782
       H    -0.37932  -12.64256   14.43296
       O    -0.60297  -11.75470   14.17149
      H1    -1.46854  -11.62226   14.64076
       H     1.68931  -15.58592   12.52533
       O     1.16678  -16.08018   11.90104
      H1     1.70332  -16.10415   11.10935
       H    -1.59031   -9.45076    8.14161
       O    -1.15944   -9.74482    8.97206
      H1    -0.22142   -9.67678    8.73668
       H     1.98543  -10.33581   13.10820
       O     1.16132  -10.12127   12.64799
      H1     0.51528  -10.59887   13.17629

