60
frame 2 | Written by MDAnalysis XYZWriter (release 2.4.3)
       H     3.75928   -0.42297  -17.91621
       O     3.12004   -0.35191  -17.21428
      H1     2.68134   -1.21600  -17.26137
       H     0.32645   -1.97359  -16.88837
       O     1.15005   -2.32352  -17.20076
      H1     1.03066   -3.27740  -17.14375
       H     0.94677   -3.81002  -12.64898
       O     0.85609   -4.20058  -13.49778
      H1     1.70919   -4.01744  -13.92324
       H     5.98175   -7.45753  -15.96885
       O     5.30376   -6.83994  -15.71279
      H1     5.72481   -6.17165  -15.16087
       H     7.80783   -5.49090  -15.71888
       O     8.13947   -6.02275  -14.98443
      H1     8.56832   -6.80565  -15.34999
       H     4.24271   -1.10483  -11.07126
       O     3.39175   -1.49893  -11.35221
      H1     3.34026   -1.33442  -12.31598
       H     1.36124   -6.09306  -17.73052
       O     1.37417   -5.16487  -17.94670
      H1     2.26488   -4.88115  -17.74023
       H     3.29043   -3.20363  -11.12859
       O     3.33510   -4.17257  -11.08913
      H1     4.01281   -4.37997  -10.43395
       H     7.64003   -3.95732  -11.36947
       O     7.15941   -3.21926  -11.82037
      H1     6.78125   -3.77652  -12.52713
       H     3.74747   -3.89547  -13.87907
       O     3.36908   -3.48178  -14.66960
      H1     3.84284   -3.88207  -15.40117
       H     4.75414   -4.19386  -16.87727
       O     3.84201   -4.07215  -17.07253
      H1     3.90118   -3.75312  -17.97439
       H     3.68169   -8.44428  -12.92132
       O     3.52065   -7.49899  -12.96570
      H1     2.97619   -7.32490  -12.19003
       H     7.04751   -3.42679  -16.43841
       O     6.88516   -4.35731  -16.69029
      H1     7.16302   -4.45688  -17.59782
       H     8.14587   -1.66949  -16.59078
       O     7.39291   -1.71436  -15.99912
      H1     7.77565   -1.60839  -15.12254
       H     3.09105   -1.78628  -14.47891
       O     3.05163   -0.89295  -14.11832
      H1     2.24558   -0.54444  -14.51240
       H     4.99130   -7.01958  -17.52868
       O     4.97824   -7.30632  -18.45216
      H1     4.25290   -6.83435  -18.88906
       H     3.71332   -7.97083  -15.47324
       O     3.18723   -8.54837  -16.04380
      H1     3.60732   -8.42299  -16.90102
       H     6.98122   -5.34595  -13.89052
       O     6.10915   -5.03148  -13.65768
      H1     5.94040   -5.51626  -12.83554
       H     4.55135    0.31414  -15.58468
       O     5.16660    1.04136  -15.52334
      H1     6.02988    0.65421  -15.73379
       H     1.78521   -7.21272  -14.07309
       O     1.02688   -6.77602  -14.48259
      H1     1.01481   -5.89980  -14.05275

