60
frame 2 | Written by MDAnalysis XYZWriter (release 2.4.3)
       H    12.61913    0.30443    9.46705
       O    13.16118   -0.44962    9.74766
      H1    13.26974   -0.30212   10.69776
       H    14.36621   -3.32391    8.63161
       O    14.05516   -3.47477    9.54889
      H1    14.09148   -4.42228    9.67711
       H     9.21417    0.48616   13.84323
       O    10.11417    0.71466   14.01579
      H1    10.08573    1.66553   13.90156
       H    10.42487   -5.85221   11.21798
       O    10.05856   -5.81804   12.12280
      H1    10.77399   -6.13974   12.66642
       H    13.15653   -0.74201   16.50305
       O    12.99800   -0.60200   15.56396
      H1    12.11634   -0.98550   15.42864
       H     6.95643   -2.73531   11.40826
       O     7.44206   -3.41764   11.93426
      H1     6.94454   -4.21763   11.83523
       H    11.50301   -4.49171    9.44827
       O    11.18418   -5.39428    9.44576
      H1    11.91623   -5.93567    9.21078
       H    10.67006    0.30906   12.21364
       O    10.67213   -0.01776   11.32435
      H1    11.62133   -0.11720   11.15200
       H    11.40162   -3.30814   13.10239
       O    10.43228   -3.33439   13.12489
      H1    10.24222   -4.15686   12.66806
       H    10.91066   -2.54602    9.32893
       O    11.54085   -2.67371    8.60901
      H1    12.39933   -2.62822    9.07133
       H    13.22410   -3.41198   11.18002
       O    12.78089   -3.68128   12.01044
      H1    13.33996   -3.18702   12.64638
       H    13.71605   -3.83102   16.92914
       O    13.25292   -4.28309   16.21740
      H1    13.92857   -4.94615   15.92322
       H    10.77960   -6.34688   16.70771
       O    11.60172   -6.69562   16.32823
      H1    12.08905   -5.87934   16.11963
       H    10.19306   -0.80120   14.69248
       O    10.37429   -1.60930   15.20962
      H1    10.43260   -2.27147   14.48303
       H     7.65387   -1.13001   13.53508
       O     7.78578   -0.19992   13.23715
      H1     7.06969    0.29099   13.64330
       H    12.79313   -7.43453   12.16408
       O    13.12403   -6.63749   12.64617
      H1    13.10931   -5.96465   11.95897
       H    14.61192   -3.14531   14.00491
       O    14.37111   -2.21297   13.87345
      H1    14.12781   -1.89238   14.73915
       H     7.67136   -3.19082   13.70039
       O     7.70832   -2.64558   14.52444
      H1     8.67612   -2.56626   14.66415
       H    13.20656    0.82818   13.35940
       O    13.44410    0.18388   12.68045
      H1    13.57281   -0.63513   13.17752
       H     9.71773   -1.34831   10.82505
       O     9.34648   -2.06495   10.31815
      H1     8.88860   -2.53643   11.02199

