60
frame 2 | Written by MDAnalysis XYZWriter (release 2.4.3)
       H    10.88715    9.47287    4.34870
       O    10.75121   10.36616    4.72219
      H1    10.05893   10.23741    5.38368
       H     7.40670    7.92874    3.64678
       O     8.06191    7.67134    2.98842
      H1     7.56813    7.18792    2.32864
       H     8.68166    6.40385    4.30432
       O     9.08144    6.17097    5.16106
      H1     9.02042    5.21076    5.12946
       H     7.56031   11.20453    4.68813
       O     6.68429   11.26561    4.28452
      H1     6.82553   10.92052    3.36877
       H     8.85274   11.72081    2.67507
       O     9.80503   11.88395    2.72449
      H1    10.13350   11.27354    3.36865
       H     6.51446    9.33602    4.58544
       O     6.48493    8.51817    5.06338
      H1     7.05623    8.61680    5.83109
       H    10.96518    9.91562    9.05794
       O    10.29514   10.17709    9.70108
      H1     9.63690   10.60505    9.13259
       H    10.24115    7.44092    3.62941
       O    11.10892    7.80380    3.38663
      H1    11.70992    7.43050    4.04862
       H     8.30025   10.27931    7.19415
       O     8.59704    9.69672    6.46725
      H1     9.07319    9.04790    6.98858
       H    14.13738   12.22890    4.60082
       O    13.63644   11.91491    3.82027
      H1    13.21455   11.08317    4.12830
       H    13.30334    9.48760    7.81098
       O    12.81806   10.00403    8.42576
      H1    13.26768    9.80461    9.28047
       H    11.45316   14.25873    5.12814
       O    11.73761   14.45020    6.01966
      H1    12.28182   13.71609    6.26292
       H     9.85141    7.30744    7.23315
       O    10.19360    7.89174    7.92692
      H1     9.59485    7.79655    8.68246
       H    10.64548   13.40841    3.10622
       O    11.46339   13.93632    3.27605
      H1    12.20272   13.31926    3.14917
       H    12.94938   10.24794    1.43297
       O    12.76108    9.30627    1.44055
      H1    12.28920    9.13553    2.26102
       H    15.13219    8.25559    6.74737
       O    14.42099    8.73269    6.23928
      H1    14.90795    9.00428    5.43606
       H    13.16590   11.42049    6.94382
       O    13.42905   12.30514    6.62772
      H1    14.27331   12.47891    7.05669
       H     7.28107   12.78524    6.03249
       O     8.18104   13.09391    5.91784
      H1     8.16800   13.97295    6.25448
       H     7.13470   11.89753    8.37818
       O     8.06111   11.71586    8.23795
      H1     8.22799   12.14922    7.39131
       H     7.74703   14.52459    2.94754
       O     8.65963   14.57971    3.14683
      H1     8.74208   13.92292    3.81168

