60
frame 2 | Written by MDAnalysis XYZWriter (release 2.4.3)
       H    14.58080  -11.06388    5.09870
       O    14.06209  -10.88223    5.89540
      H1    13.32213  -11.50120    5.93596
       H    14.45418  -14.71976    6.30916
       O    13.77637  -14.50905    5.69252
      H1    12.93240  -14.72244    6.12254
       H    18.05347   -9.67171    3.03994
       O    18.68262  -10.31136    2.67410
      H1    18.51825  -10.34144    1.71836
       H    15.80866  -12.90275    9.35674
       O    15.91294  -13.78671    9.73117
      H1    15.69424  -14.29764    8.94150
       H    15.86507  -15.94229    7.70339
       O    15.93996  -15.03850    7.40168
      H1    16.77179  -15.01999    6.90344
       H    19.48619  -17.01472   11.20936
       O    18.76859  -16.77075   10.58421
      H1    17.98234  -16.87177   11.16180
       H    18.91822  -13.01731    8.07186
       O    18.70913  -12.08948    7.90640
      H1    18.61524  -12.01196    6.98606
       H    15.97007  -18.83290    7.68521
       O    16.18055  -19.19805    6.83491
      H1    16.67526  -18.50803    6.40493
       H    17.80411  -13.02591   15.07718
       O    18.21016  -12.21854   14.70904
      H1    17.71167  -12.01002   13.90588
       H    17.14476  -10.48120   12.11865
       O    16.74502  -11.32503   12.34873
      H1    15.84464  -11.12617   12.66616
       H    16.75762  -14.08390   11.17177
       O    17.23394  -14.09455   12.01569
      H1    17.38610  -13.15604   12.14607
       H    16.86800  -11.41964    8.16071
       O    15.91832  -11.37405    8.33281
      H1    15.52639  -11.57427    7.45309
       H    18.20269  -13.42789    5.35153
       O    18.00965  -12.48324    5.17556
      H1    18.84768  -12.22873    4.77879
       H    14.62349  -17.38878    7.85657
       O    15.22084  -17.26821    8.60901
      H1    14.63424  -17.14715    9.38982
       H    16.64503   -8.36135    9.41677
       O    16.97436   -8.43977    8.52101
      H1    16.71148   -9.38086    8.35510
       H    15.98129  -17.50854   12.41738
       O    16.41295  -16.87205   11.83147
      H1    16.47430  -16.09887   12.36269
       H    12.67672  -12.79658    9.98093
       O    12.97333  -13.70897    9.82166
      H1    13.94131  -13.61930    9.94135
       H    15.80996  -12.71911    3.13540
       O    15.78736  -11.95155    3.71864
      H1    16.58004  -12.12247    4.28177
       H    15.71624  -17.23063    3.35070
       O    15.74754  -16.63471    4.08569
      H1    15.47011  -15.77304    3.72256
       H    18.41128  -16.14906    5.69818
       O    17.90380  -15.40057    5.44695
      H1    17.27477  -15.75057    4.79374

