60
frame 2 | Written by MDAnalysis XYZWriter (release 2.4.3)
       H    -6.51799    3.21273   -6.77237
       O    -5.72467    3.59048   -6.32979
      H1    -5.28884    4.07701   -7.06481
       H    -3.09890    1.78570   -5.63676
       O    -3.74078    1.46402   -6.34001
      H1    -4.42029    2.14260   -6.46892
       H    -3.53141    3.03994   -3.42755
       O    -2.73984    3.32355   -3.88790
      H1    -2.04787    3.26999   -3.20502
       H    -0.97403    1.58058   -4.39563
       O    -1.37281    0.73058   -4.68391
      H1    -0.62508    0.15087   -4.99227
       H    -0.97253    6.41390   -1.46513
       O    -0.68016    5.83620   -0.75485
      H1    -0.84730    4.95665   -1.06499
       H    -4.66401    6.46275   -0.63327
       O    -4.61017    5.61222   -1.06142
      H1    -4.08114    5.10676   -0.47092
       H    -4.50224    6.46143   -5.68062
       O    -3.91116    7.21114   -5.90440
      H1    -3.02276    6.85497   -5.94384
       H    -0.92929    1.96748   -0.98687
       O    -1.42809    2.74710   -1.34794
      H1    -1.92529    3.04676   -0.57861
       H     1.42227    2.41562   -4.95122
       O     0.52157    2.74021   -4.86357
      H1     0.29389    2.94100   -5.78486
       H    -6.50188    7.08329   -4.04704
       O    -6.76189    7.90444   -3.62762
      H1    -5.91078    8.36242   -3.58180
       H     0.69348    4.88887   -2.25915
       O     1.16226    4.87533   -3.09005
      H1     0.68975    4.23974   -3.62778
       H    -2.75636    3.16600    1.25993
       O    -2.89869    3.99361    0.80412
      H1    -3.74149    4.26363    1.16234
       H    -3.90668    9.49731   -4.35345
       O    -3.82865    8.76544   -3.72404
      H1    -3.36632    8.10370   -4.23932
       H    -4.23136    0.88380   -1.89400
       O    -4.48682    1.80704   -1.86535
      H1    -5.42486    1.73131   -2.12523
       H    -5.63861    4.92885   -5.10894
       O    -5.59341    5.58133   -4.40120
      H1    -4.67630    5.65778   -4.16800
       H    -2.00900    8.20367    0.89094
       O    -2.10491    7.27769    1.06481
      H1    -1.51183    6.86533    0.37527
       H    -2.42382    5.09064   -7.90148
       O    -3.25879    4.66926   -8.06482
      H1    -2.99170    3.78970   -8.27347
       H    -7.16214    4.54155   -3.00409
       O    -7.24496    4.48809   -2.03824
      H1    -6.39704    4.65634   -1.64321
       H     0.22462    6.73723   -5.13999
       O     0.36539    7.69883   -5.14304
      H1     0.37643    7.89080   -4.19379
       H    -3.48736    5.77260   -2.39668
       O    -2.99684    5.95422   -3.20843
      H1    -2.98407    5.07881   -3.62094

