60
frame 2 | Written by MDAnalysis XYZWriter (release 2.4.3)
       H    -4.50176   -9.03138   -5.67241
       O    -5.27872   -8.61449   -5.29794
      H1    -5.71072   -8.27134   -6.06487
       H     0.39865   -8.35571   -3.39951
       O     0.34681   -7.73819   -2.65319
      H1     1.15299   -7.25759   -2.77644
       H     1.05842  -10.75065    0.61545
       O     0.31226  -11.31312    0.45792
      H1    -0.29898  -10.66649    0.12976
       H    -4.77352  -12.79304   -4.31191
       O    -4.71747  -11.83200   -4.34192
      H1    -5.23722  -11.58657   -5.13725
       H     0.63276  -13.60173   -1.03481
       O    -0.22749  -13.92702   -0.72565
      H1    -0.65495  -13.09217   -0.50533
       H    -4.79515   -9.30229    0.23773
       O    -4.43855  -10.13283   -0.13115
      H1    -4.07296  -10.63020    0.59998
       H    -3.47549  -12.51979   -1.33185
       O    -2.99022  -11.88009   -1.87285
      H1    -3.54563  -11.78234   -2.66674
       H    -2.63354   -9.70430   -0.44533
       O    -1.69374   -9.49994   -0.53784
      H1    -1.65142   -8.63835   -0.08599
       H    -4.24452   -7.83468   -3.98094
       O    -3.56935   -7.75440   -3.29853
      H1    -3.08403   -8.56936   -3.30128
       H    -1.24450  -14.87985   -1.98234
       O    -1.59918  -15.39540   -2.72347
      H1    -2.54746  -15.24780   -2.71673
       H     0.65142  -10.29896   -2.38838
       O     1.59922  -10.41708   -2.17379
      H1     2.03552   -9.93584   -2.84491
       H     1.21444  -13.18589   -6.03488
       O     0.47938  -12.86389   -6.50988
      H1     0.84021  -12.65694   -7.38215
       H    -1.57694  -10.83208   -3.40460
       O    -1.36141   -9.88094   -3.38441
      H1    -1.37284   -9.67533   -2.43551
       H    -3.43341  -10.99223   -5.13624
       O    -3.10865  -10.15501   -5.51487
      H1    -2.21729  -10.07343   -5.07600
       H    -1.52443  -12.03212   -7.44234
       O    -1.87536  -11.12209   -7.57439
      H1    -2.44083  -10.98359   -6.82427
       H     1.47820   -8.06048   -0.22879
       O     1.85398   -8.95237   -0.10448
      H1     1.59328   -9.38364   -0.92721
       H    -2.25196  -11.75790    2.23357
       O    -2.77643  -11.64598    1.44653
      H1    -2.10846  -11.63453    0.76598
       H    -0.86233  -12.33246   -5.37743
       O    -1.38729  -12.32406   -4.57601
      H1    -0.76056  -12.82500   -4.00790
       H    -1.14987   -8.12900   -8.61867
       O    -0.57808   -8.72402   -8.11399
      H1    -1.12039   -9.45429   -7.72431
       H    -5.77227  -11.09475   -2.24779
       O    -6.67072  -11.02757   -1.87838
      H1    -7.10970  -10.40963   -2.47508

