60
frame 0 | Written by MDAnalysis XYZWriter (release 2.4.3)
       H    13.46295  -16.64545   17.53507
       O    13.02633  -17.08902   18.27196
      H1    12.61097  -16.40480   18.82768
       H    17.44866  -14.24239   17.50745
       O    16.52381  -14.50107   17.59439
      H1    16.38134  -15.05173   16.82525
       H     7.35191  -15.60242   17.45507
       O     7.29189  -16.56059   17.62624
      H1     7.67889  -16.70025   18.49186
       H    10.16202  -19.02461   12.63917
       O     9.77778  -18.34203   13.22025
      H1    10.46901  -17.63938   13.23229
       H    12.74943  -12.05410   18.25555
       O    12.65798  -12.18540   19.19552
      H1    13.53385  -12.50393   19.48392
       H    15.90978  -17.93726   12.88612
       O    15.64017  -17.54651   12.02084
      H1    14.91638  -16.97356   12.23946
       H     9.17631  -16.35971   13.96625
       O     8.63795  -16.15352   14.74723
      H1     9.16001  -16.54231   15.44168
       H    13.59547  -18.54712   15.23324
       O    12.90222  -18.26586   14.61775
      H1    13.30467  -18.46904   13.77554
       H    14.89835  -15.53213   14.81536
       O    15.76002  -15.09456   14.97216
      H1    15.64548  -14.17295   14.66985
       H     9.77014  -17.74360   17.36146
       O    10.37100  -17.29569   16.74895
      H1    11.16148  -17.80791   16.80052
       H    18.11497  -16.17235   13.03484
       O    18.11044  -15.75559   13.89556
      H1    17.18959  -15.44600   13.99927
       H    12.24920  -15.48291   15.85577
       O    13.10975  -15.80058   15.59371
      H1    12.95770  -16.68665   15.21792
       H    10.45622  -15.61345   16.78764
       O    10.86728  -14.73171   16.65229
      H1    11.34797  -14.54027   17.46815
       H    17.37964  -17.48548   14.20989
       O    17.04858  -18.33113   14.54283
      H1    16.43174  -18.05087   15.22456
       H     8.68218  -12.90776   14.94602
       O     9.51293  -12.66112   15.37552
      H1     9.87234  -13.46008   15.82158
       H    13.86487  -10.72169   16.62029
       O    13.30682  -11.43797   16.30000
      H1    12.42359  -11.03546   16.23728
       H    11.14625  -16.09578   12.26871
       O    10.92578  -15.83144   13.16182
      H1    10.77084  -14.87134   13.07024
       H     8.25083  -19.02143   18.80338
       O     9.06199  -18.51767   19.02142
      H1     9.78595  -19.13731   18.78368
       H    13.50724  -11.96638   14.55633
       O    13.58744  -12.26316   13.64722
      H1    12.73394  -12.60884   13.39035
       H    13.27278  -15.29997   13.04588
       O    13.54269  -15.68430   12.20782
      H1    13.66940  -14.90747   11.60120

