60
frame 5 | Written by MDAnalysis XYZWriter (release 2.4.3)
       H   -15.60916   12.68878   17.95494
       O   -15.87626   11.75256   17.72468
      H1   -15.30321   11.21602   18.32816
       H    -9.43085   13.49305   18.66060
       O    -9.81651   14.22055   18.16235
      H1    -9.66421   14.90383   18.78092
       H   -14.64752   12.13963   16.33673
       O   -14.24254   12.73627   15.73681
      H1   -14.29079   13.68590   15.96823
       H   -13.23697   15.51076   16.90394
       O   -13.88878   15.59144   16.14417
      H1   -14.33007   16.46942   16.18491
       H   -13.16768   19.52970   19.64406
       O   -13.77590   19.65182   18.96068
      H1   -13.35647   19.69624   18.12747
       H   -11.04433   18.34468   17.92327
       O   -11.61466   17.61217   17.52399
      H1   -10.99600   17.26333   16.81561
       H   -15.35870   18.23935   16.94114
       O   -14.99882   18.25183   16.04258
      H1   -14.14995   18.76939   16.08377
       H   -11.63566   15.21624   14.08905
       O   -12.13651   16.07647   14.10760
      H1   -12.74570   15.94525   14.82394
       H   -16.40155   13.53695   14.83274
       O   -17.32551   13.47186   14.45799
      H1   -17.26097   12.77052   13.79897
       H   -12.24879   17.01221   12.80512
       O   -12.05016   17.59976   11.98193
      H1   -11.84991   18.43547   12.46023
       H   -12.93373   16.86287   18.88664
       O   -13.33724   16.39390   19.64994
      H1   -14.10534   16.98340   19.85497
       H    -8.90458   17.65869   15.99308
       O    -9.68989   17.22216   15.53668
      H1    -9.76788   17.67275   14.66566
       H   -12.53496   13.14140   17.53374
       O   -12.44462   14.02953   17.91209
      H1   -11.48674   14.11404   17.90792
       H   -17.01810   19.16022   19.30573
       O   -16.30024   18.60244   19.03651
      H1   -15.49706   19.12925   19.02170
       H   -17.52920   15.15034   16.47030
       O   -17.59384   15.91283   17.03212
      H1   -18.23952   16.43703   16.59925
       H   -14.39541   15.14515   11.70039
       O   -15.36170   15.29435   11.86125
      H1   -15.47645   16.14068   12.38795
       H   -17.99162   15.09570   13.64088
       O   -18.54082   15.52786   12.96065
      H1   -18.68076   16.52525   13.02277
       H   -17.82386   10.69854   17.52006
       O   -18.74032   10.46671   17.35271
      H1   -19.15941   11.33347   17.31411
       H   -14.78780   15.10958   18.71819
       O   -15.63166   14.63241   18.54225
      H1   -16.05150   15.37790   18.09643
       H   -18.73152   18.04759   11.77456
       O   -18.72001   18.13227   12.77503
      H1   -17.86350   18.52719   13.07732

