60
frame 0 | Written by MDAnalysis XYZWriter (release 2.4.3)
       H    11.28222   10.32174   -3.24551
       O    12.09499   10.10045   -2.79028
      H1    12.70637    9.98054   -3.51201
       H    18.72466    9.80762   -0.54069
       O    18.99047    9.17555   -1.21971
      H1    18.55201    9.51908   -2.01248
       H    19.19441    6.37965   -3.62778
       O    19.09693    6.94930   -4.41118
      H1    18.13441    6.93864   -4.52929
       H    17.65254    6.79369    0.51964
       O    17.69502    6.76458   -0.43849
      H1    17.92809    7.64859   -0.65008
       H    13.23216    7.41366   -0.20901
       O    12.96375    7.28147    0.70891
      H1    13.00879    8.22471    1.01937
       H    12.72141   10.42029   -1.00978
       O    12.61425   10.19956   -0.08579
      H1    11.70304   10.29498    0.14429
       H    16.51332    8.92156   -5.52404
       O    16.95422    9.79559   -5.60230
      H1    17.55285    9.65061   -6.35928
       H    17.55470   10.41466   -3.84949
       O    17.87412   10.83389   -3.03409
      H1    18.38492   11.63522   -3.26565
       H    15.34787    4.68681   -6.15004
       O    15.02989    4.97113   -5.26809
      H1    15.63514    4.57288   -4.67019
       H    17.39897    3.79460   -3.99794
       O    16.80718    4.08642   -3.31424
      H1    16.65038    3.33662   -2.75328
       H    16.01977   10.95072   -2.33338
       O    15.18668   11.25360   -1.94540
      H1    15.44744   11.70723   -1.14979
       H    11.58686    6.83962   -5.61152
       O    12.45578    7.16587   -5.45420
      H1    12.64596    6.94011   -4.53385
       H    15.60861    9.02238   -2.10863
       O    15.77051    8.13817   -2.47243
      H1    16.12024    7.62216   -1.72354
       H    18.28008    5.07805   -2.24743
       O    19.17021    5.34750   -2.15430
      H1    19.09825    5.97769   -1.40352
       H    15.34531   11.09683   -4.76671
       O    15.13149   12.02985   -4.90565
      H1    15.01420   12.38028   -3.98629
       H    16.20704    7.81803   -4.02339
       O    16.23385    7.35255   -4.89247
      H1    15.53787    6.68100   -4.82803
       H    13.60977   10.44044   -5.41173
       O    13.87076    9.54885   -5.17970
      H1    13.07871    9.03726   -5.37617
       H    13.75831    4.15171   -1.28238
       O    14.15681    4.96943   -1.62819
      H1    15.06914    4.74057   -1.62955
       H    13.60692    7.68590   -2.82887
       O    12.82603    7.10367   -2.73803
      H1    13.17347    6.32094   -2.31186
       H    14.23106    9.93671    0.88065
       O    15.01744    9.51097    1.25628
      H1    15.29535   10.20772    1.83107

