60
frame 2 | Written by MDAnalysis XYZWriter (release 2.4.3)
       H     1.52316   -6.43994   12.23744
       O     1.78723   -5.74368   11.56485
      H1     1.32371   -5.98451   10.76474
       H    -1.49717   -0.90388    9.44145
       O    -1.11639   -0.11657    9.01559
      H1    -1.52838    0.68966    9.35044
       H    -3.72347   -5.06361   11.63241
       O    -2.89684   -4.91544   12.13463
      H1    -3.03244   -4.02826   12.48431
       H    -2.97561   -2.62955    9.52868
       O    -3.68070   -2.79045    8.87282
      H1    -3.64933   -2.03503    8.31500
       H    -2.89254   -0.97870   11.97398
       O    -3.09166   -0.10164   11.59785
      H1    -4.06725   -0.02826   11.67338
       H     1.05198   -3.17994    8.02765
       O     0.10888   -3.46620    8.10181
      H1     0.12173   -4.25763    7.51953
       H     3.12476   -1.73729   12.38732
       O     3.68891   -0.98171   12.49212
      H1     3.22863   -0.32570   11.99069
       H     2.19537   -1.00356    8.37248
       O     2.48479   -1.89719    8.57277
      H1     3.40777   -1.93632    8.29377
       H     1.53030   -4.33507   13.27983
       O     0.90115   -3.91006   13.86479
      H1     1.35342   -3.71087   14.66328
       H    -0.97382   -2.46087   11.22499
       O    -1.35508   -2.43037   10.34220
      H1    -0.61851   -2.69290    9.78653
       H    -5.25247   -2.28207    9.66233
       O    -5.94505   -1.94008   10.26643
      H1    -6.00888   -2.66806   10.90260
       H    -0.30809   -6.21602   15.89200
       O    -0.74433   -5.46466   15.47582
      H1    -0.10352   -4.99979   14.92563
       H     1.96396   -3.73622   10.95102
       O     2.36639   -2.88956   11.21458
      H1     2.38236   -2.33681   10.44740
       H    -0.54254   -1.04637   13.14896
       O    -0.79006   -1.97557   13.08132
      H1     0.01962   -2.50600   12.99868
       H    -1.57016   -2.82167   14.70202
       O    -2.17852   -2.97030   15.42030
      H1    -1.82698   -3.82926   15.69983
       H     0.65688    0.82786   15.07168
       O    -0.07564    0.61414   14.47463
      H1    -0.79051    1.20569   14.77257
       H    -4.78357   -2.15085   12.79939
       O    -3.96732   -2.57581   13.02225
      H1    -3.68472   -2.07620   13.80721
       H    -1.23308   -0.92015    6.53972
       O    -1.24393   -1.77982    6.07614
      H1    -0.94127   -2.34636    6.80335
       H    -1.92251   -5.14223   10.32690
       O    -1.31410   -5.43744    9.65070
      H1    -1.17163   -4.67355    9.06967
       H     1.88622    0.60737    9.55598
       O     1.49614    0.67498    8.66787
      H1     0.58932    0.38782    8.82335

