60
frame 2 | Written by MDAnalysis XYZWriter (release 2.4.3)
       H    13.65925  -13.35556  -11.54471
       O    14.36589  -13.00728  -10.99198
      H1    15.16726  -13.09388  -11.50869
       H    16.82915  -13.30097   -7.44651
       O    16.64946  -12.42892   -7.08760
      H1    17.48918  -12.00833   -6.85947
       H    13.85760  -10.53510   -6.35999
       O    14.76451  -10.27043   -6.00755
      H1    15.12008   -9.66020   -6.66405
       H    18.84000  -11.98153   -9.88040
       O    19.26738  -11.27490   -9.36004
      H1    18.54242  -10.69514   -9.09506
       H    13.13755  -10.88026  -10.59964
       O    13.00499  -10.06570  -10.08182
      H1    12.13335   -9.78630  -10.38638
       H    16.73410  -10.91324   -8.05255
       O    17.10001  -10.07702   -8.36490
      H1    17.49342   -9.65113   -7.58075
       H    17.30406   -9.00966  -13.77317
       O    17.04144   -8.22646  -14.26187
      H1    17.35186   -7.48931  -13.72789
       H    17.83707  -14.94513   -8.97150
       O    17.30303  -15.25204   -8.22756
      H1    17.99966  -15.67556   -7.67034
       H    17.03009  -11.60386  -12.46138
       O    16.84439  -12.55639  -12.40609
      H1    16.66597  -12.69706  -13.33839
       H    17.81860  -13.32226  -11.19472
       O    18.15458  -13.67695  -10.34280
      H1    18.99300  -14.05530  -10.55718
       H    14.43842  -15.21643   -9.89011
       O    15.01864  -15.95228   -9.65663
      H1    15.84515  -15.58151   -9.32487
       H    16.36993   -6.81496   -7.51717
       O    16.04451   -7.40543   -6.85203
      H1    15.09418   -7.22850   -6.79634
       H    15.58237  -12.76298   -4.70267
       O    14.91001  -13.35198   -5.13069
      H1    15.14661  -13.21949   -6.06122
       H    17.04936   -6.02905  -11.70621
       O    17.62162   -6.44611  -12.38413
      H1    18.31070   -6.85353  -11.81200
       H    15.50912   -7.15378   -9.80912
       O    15.73199   -6.21812   -9.76530
      H1    14.92791   -5.78753   -9.40676
       H    15.02061   -8.33005  -11.88645
       O    14.81046   -8.06492  -12.78097
      H1    15.61300   -8.11152  -13.33327
       H    14.78282   -9.57457   -9.84654
       O    15.35619   -8.85076  -10.11130
      H1    16.25464   -9.15968   -9.85673
       H    18.56735  -10.57416  -12.76230
       O    17.81620  -10.04952  -12.41013
      H1    18.26543   -9.57098  -11.69610
       H    17.27247  -15.73951   -3.79747
       O    17.50704  -15.31368   -4.62083
      H1    16.87891  -14.58416   -4.64383
       H    17.86944   -5.68982   -6.33403
       O    18.53974   -6.30424   -5.94243
      H1    17.97727   -7.05513   -5.61374

