60
frame 2 | Written by MDAnalysis XYZWriter (release 2.4.3)
       H    -1.49717   -0.90388    9.44145
       O    -1.11639   -0.11657    9.01559
      H1    -1.52838    0.68966    9.35044
       H    -5.36548    3.90884   14.82120
       O    -5.84848    4.75275   14.78122
      H1    -6.74830    4.46402   14.45170
       H    -2.89254   -0.97870   11.97398
       O    -3.09166   -0.10164   11.59785
      H1    -4.06725   -0.02826   11.67338
       H    -6.16452   -1.09724   14.40255
       O    -6.54929   -1.08125   13.50089
      H1    -7.49745   -1.23394   13.66578
       H    -6.26297    4.62339   10.54711
       O    -6.15417    4.41979   11.50870
      H1    -5.97117    5.27347   11.89036
       H    -0.75924    2.19100   10.67242
       O    -0.14979    2.06396   11.41057
      H1    -0.21458    2.90828   11.86977
       H    -3.89053    2.00496   12.20777
       O    -3.85522    2.67676   11.51670
      H1    -4.69681    3.13823   11.57903
       H    -3.93864    2.24995    8.90431
       O    -4.67449    1.67394    8.65618
      H1    -4.31875    0.93761    8.12023
       H    -7.95724    1.76851   15.29505
       O    -7.08977    1.89993   15.72383
      H1    -6.45714    1.63628   15.05286
       H    -5.86351   -0.22285   10.76527
       O    -5.86151    0.71256   11.06483
      H1    -5.28598    1.15290   10.42878
       H    -5.67110    0.85654   13.35610
       O    -5.09836    1.49035   13.83975
      H1    -4.29103    0.98731   14.05807
       H    -0.54254   -1.04637   13.14896
       O    -0.79006   -1.97557   13.08132
      H1     0.01962   -2.50600   12.99868
       H    -2.67880    5.71523   11.49116
       O    -2.50262    5.05009   12.17631
      H1    -3.10887    4.33260   11.95177
       H     0.65688    0.82786   15.07168
       O    -0.07564    0.61414   14.47463
      H1    -0.79051    1.20569   14.77257
       H    -1.64120    3.82719    9.58988
       O    -1.98029    2.92798    9.56873
      H1    -2.60087    2.96164   10.31486
       H    -2.79370    2.57761   14.74818
       O    -2.80360    1.82148   15.37581
      H1    -2.88614    2.19673   16.28367
       H    -8.85511    2.70395   10.79409
       O    -8.67542    1.83157   11.13652
      H1    -7.70911    1.72305   11.09795
       H    -4.78357   -2.15085   12.79939
       O    -3.96732   -2.57581   13.02225
      H1    -3.68472   -2.07620   13.80721
       H    -1.64944    4.35926   15.36060
       O    -2.54550    4.51670   15.01012
      H1    -2.45776    4.67753   14.06485
       H    -7.56564    3.90864   12.65051
       O    -8.17241    4.19270   13.35863
      H1    -8.49415    3.34436   13.69780

