60
frame 2 | Written by MDAnalysis XYZWriter (release 2.4.3)
       H   -15.92634  -15.58830    8.13520
       O   -15.75652  -14.80296    8.65460
      H1   -16.63758  -14.41593    8.77754
       H   -13.46374  -17.43677    7.64748
       O   -12.72296  -17.32617    7.05699
      H1   -13.17390  -16.78467    6.39804
       H   -11.09243  -17.51737   11.77124
       O   -10.53995  -18.29324   11.51586
      H1    -9.70746  -18.14405   11.98166
       H   -15.98754  -16.55772   13.12641
       O   -15.60716  -16.17736   13.93873
      H1   -14.71318  -15.94856   13.67546
       H   -14.27579  -13.82258    6.32125
       O   -14.36273  -13.28059    7.12010
      H1   -14.72891  -13.92906    7.72221
       H   -18.28796  -13.26427   10.16024
       O   -18.39928  -14.00166    9.53758
      H1   -18.93853  -14.63843   10.06296
       H   -16.43554  -14.42481    5.10149
       O   -16.97834  -14.06983    5.78978
      H1   -17.08439  -14.81134    6.39929
       H   -10.10740  -16.84153    7.50822
       O   -10.04072  -17.27299    8.36272
      H1   -10.68210  -16.76731    8.87810
       H   -12.59171  -15.46103    4.15806
       O   -13.41490  -15.45149    4.68319
      H1   -13.89496  -16.22960    4.41103
       H   -14.26498  -14.94820   10.91126
       O   -14.11976  -14.24346   11.56115
      H1   -13.24377  -13.93223   11.31829
       H   -12.97217  -16.62617   10.56302
       O   -13.61295  -17.32185   10.81656
      H1   -13.05573  -18.00008   11.22328
       H   -13.33004  -17.94888   14.93190
       O   -13.15492  -17.73299   13.99254
      H1   -12.99365  -18.60524   13.63987
       H   -12.42341  -17.54060    3.45324
       O   -12.92327  -17.57091    2.63509
      H1   -12.82244  -18.47514    2.37662
       H   -11.79534  -14.92250    9.59806
       O   -11.52024  -15.67918   10.11256
      H1   -11.17929  -15.31248   10.94018
       H   -17.67760  -18.04986   12.79770
       O   -17.03729  -17.65401   12.21426
      H1   -16.45556  -18.42397   12.00110
       H   -18.64013  -18.00818    3.75872
       O   -18.34464  -17.41377    4.47453
      H1   -17.37971  -17.63404    4.52239
       H   -18.08599  -16.67780    9.08184
       O   -17.64655  -16.82481    8.21293
      H1   -16.71114  -17.06681    8.45623
       H   -14.82300  -17.74592    9.32515
       O   -15.02164  -17.59975    8.41198
      H1   -15.15143  -18.46582    8.08121
       H   -12.64651  -13.79932    7.92226
       O   -11.81288  -13.77253    8.40264
      H1   -11.77203  -12.87532    8.73883
       H   -15.81485  -17.04009    3.21672
       O   -15.40800  -17.21701    4.08090
      H1   -15.01456  -18.08376    3.94181

