60
frame 2 | Written by MDAnalysis XYZWriter (release 2.4.3)
       H   -15.92634  -15.58830    8.13520
       O   -15.75652  -14.80296    8.65460
      H1   -16.63758  -14.41593    8.77754
       H   -14.72598  -14.42615    3.66154
       O   -15.50850  -14.03947    3.31524
      H1   -15.10425  -13.35844    2.80431
       H   -17.38053  -12.59080   11.85999
       O   -17.66526  -11.89250   11.22423
      H1   -16.84049  -11.76882   10.66738
       H   -14.27579  -13.82258    6.32125
       O   -14.36273  -13.28059    7.12010
      H1   -14.72891  -13.92906    7.72221
       H   -18.92758   -8.22732    8.86005
       O   -17.97384   -8.20344    9.09512
      H1   -17.62420   -8.84348    8.46349
       H   -18.28796  -13.26427   10.16024
       O   -18.39928  -14.00166    9.53758
      H1   -18.93853  -14.63843   10.06296
       H    -9.47790  -12.33880    6.59556
       O   -10.25117  -12.65585    6.13261
      H1   -10.82820  -13.08370    6.79230
       H   -16.43554  -14.42481    5.10149
       O   -16.97834  -14.06983    5.78978
      H1   -17.08439  -14.81134    6.39929
       H   -12.59171  -15.46103    4.15806
       O   -13.41490  -15.45149    4.68319
      H1   -13.89496  -16.22960    4.41103
       H   -12.52445  -11.77790    2.05189
       O   -13.20371  -11.08700    2.01630
      H1   -13.48508  -10.86279    2.91991
       H   -16.02909  -11.37638    5.42665
       O   -15.40974  -11.20648    6.12222
      H1   -15.39567  -12.06128    6.53428
       H   -15.40973   -8.61696    7.73873
       O   -14.84667   -8.14102    7.08419
      H1   -14.94851   -7.24115    7.40239
       H   -17.37179  -11.24583    8.25709
       O   -16.57446  -10.84520    8.66129
      H1   -15.83272  -11.22787    8.17463
       H   -13.40562   -8.69438    8.48620
       O   -12.94231   -8.71616    9.33651
      H1   -12.40520   -9.52285    9.30239
       H   -17.23039  -12.54729    4.06363
       O   -17.19832  -11.58495    4.05654
      H1   -17.92948  -11.25144    3.52483
       H   -16.18893  -11.35273    0.80453
       O   -16.48707  -12.08629    1.38536
      H1   -16.51769  -11.68856    2.27573
       H   -15.75377   -9.18447    3.16910
       O   -14.85656   -9.38234    3.45736
      H1   -14.91226   -9.36890    4.42520
       H   -16.22740   -8.25924    5.84792
       O   -16.98862   -8.67118    5.35957
      H1   -16.92022   -9.57152    5.67302
       H   -12.64651  -13.79932    7.92226
       O   -11.81288  -13.77253    8.40264
      H1   -11.77203  -12.87532    8.73883
       H   -12.53509  -10.90810    4.95514
       O   -12.82293  -10.26461    5.61002
      H1   -13.62490  -10.61274    6.05530

