60
frame 2 | Written by MDAnalysis XYZWriter (release 2.4.3)
       H    -7.94601    9.32326  -14.34600
       O    -8.67048    8.71651  -14.26338
      H1    -9.38758    9.17897  -14.68587
       H   -12.32230    6.76006  -17.19101
       O   -12.66734    7.62328  -17.38325
      H1   -13.39990    7.69025  -16.78107
       H   -11.85881    8.67786  -16.07730
       O   -11.42482    9.01942  -15.29460
      H1   -11.71683    8.44495  -14.57473
       H    -9.22550    9.03828  -17.25932
       O    -9.73964    9.65044  -17.81291
      H1    -9.92217    9.18685  -18.61424
       H    -9.80268    4.85847  -17.62154
       O   -10.33380    5.52751  -17.17592
      H1    -9.77164    6.28894  -17.04000
       H    -5.24655    8.64409  -17.66402
       O    -5.52561    8.39958  -18.57525
      H1    -5.98350    9.23304  -18.79003
       H    -3.01582    5.19103  -15.81799
       O    -2.99814    4.90190  -16.76681
      H1    -2.02853    4.82659  -16.92725
       H    -8.86046    2.80467  -19.11196
       O    -8.97776    3.50409  -18.42344
      H1    -8.61244    3.03652  -17.66625
       H    -7.40230    1.64102  -17.06459
       O    -7.66317    2.21781  -16.31990
      H1    -6.99198    2.93604  -16.26875
       H    -7.75974    7.22352  -17.92302
       O    -8.21897    7.18138  -17.05976
      H1    -7.50490    7.02496  -16.44798
       H    -9.48050    5.20321  -15.47789
       O    -8.83173    4.91649  -14.82026
      H1    -9.09534    5.29247  -13.97773
       H    -6.77957   11.51682  -17.32713
       O    -7.22780   12.05601  -16.63802
      H1    -8.15523   12.08146  -16.96642
       H    -5.25832    9.17744  -15.23632
       O    -4.86403    8.61205  -15.91767
      H1    -5.33899    7.79914  -15.74970
       H    -9.62054    6.18500  -11.86016
       O    -9.87066    6.28589  -12.76161
      H1    -9.35524    7.01316  -13.08071
       H    -6.51872    7.14982  -11.80197
       O    -6.46924    6.22189  -12.12684
      H1    -6.24745    5.73125  -11.35326
       H    -5.65199    9.93690  -13.13724
       O    -6.27751   10.03897  -13.87013
      H1    -6.59186   10.94174  -13.67434
       H    -6.18338    6.53327  -14.18180
       O    -6.39042    6.40530  -15.09817
      H1    -7.17672    5.82569  -15.05346
       H    -6.07572    3.77244  -13.70935
       O    -5.21931    3.43607  -14.02975
      H1    -5.07487    2.63347  -13.49981
       H    -3.61202    7.53161  -14.97985
       O    -3.00769    6.90032  -14.55214
      H1    -3.11630    7.06512  -13.61763
       H    -5.83594    5.08569  -16.62408
       O    -5.76879    4.14084  -16.52264
      H1    -5.30206    3.99660  -15.71255

