60
frame 2 | Written by MDAnalysis XYZWriter (release 2.4.3)
       H    -8.76940   11.65345   -1.65333
       O    -9.69073   11.49025   -1.41627
      H1    -9.60712   11.00368   -0.57628
       H    -8.70065    5.50600   -1.40887
       O    -9.49716    6.00682   -1.23369
      H1    -9.26812    6.82644   -1.72317
       H    -6.52407   12.51859   -1.70980
       O    -7.03310   11.70216   -1.51529
      H1    -7.15313   11.75709   -0.57693
       H   -10.70028   14.54946   -2.26617
       O   -10.94677   14.20757   -3.12630
      H1   -11.77632   14.62725   -3.34874
       H    -6.75586   14.94380   -2.55580
       O    -6.01462   14.31272   -2.46468
      H1    -5.26534   14.89512   -2.66816
       H    -5.66299   10.52833   -1.03704
       O    -4.87457   10.53719   -0.45120
      H1    -4.69724    9.59885   -0.32768
       H    -9.62352   15.54829    0.14292
       O   -10.23269   15.11651   -0.46014
      H1   -10.55788   14.35760    0.07646
       H   -13.91833   14.26546    1.11345
       O   -13.52703   14.02302    0.26660
      H1   -12.76778   13.48149    0.51376
       H   -11.73277   12.39417   -3.02911
       O   -12.36689   11.71778   -3.36805
      H1   -13.12147   11.85154   -2.77346
       H    -8.53465   15.90321   -3.85983
       O    -8.53658   15.67494   -2.91301
      H1    -9.29879   15.11538   -2.83427
       H    -9.12251   10.04190    3.45638
       O    -8.53677    9.31438    3.29202
      H1    -8.51997    9.34257    2.33354
       H    -9.12317    8.82913   -0.06162
       O    -9.49187    9.20207    0.76379
      H1   -10.14010    8.57759    1.08570
       H    -7.21338   11.51930    2.37062
       O    -6.89653   11.26507    1.49721
      H1    -5.92984   11.31728    1.55685
       H    -7.61094   10.55898   -4.77200
       O    -6.99758   11.01925   -5.38628
      H1    -7.20068   11.94130   -5.25278
       H    -9.31897   11.28302   -4.77343
       O    -9.64806   10.37828   -4.62542
      H1   -10.29645   10.47864   -3.92629
       H    -9.89379   13.19732   -5.64571
       O    -9.16363   13.06476   -5.01176
      H1    -9.55653   13.41858   -4.21666
       H   -11.94445    9.57853    0.76801
       O   -12.40479   10.25176    0.20945
      H1   -13.07003   10.63324    0.82421
       H   -11.12418   12.77852    1.89553
       O   -11.13811   12.94803    0.94429
      H1   -11.54316   12.16563    0.58828
       H   -12.27460    9.79520   -2.68745
       O   -11.89703    8.99735   -2.29870
      H1   -11.78654    9.17344   -1.33571
       H    -8.46198    8.57393   -2.49476
       O    -8.92326    8.60316   -1.65054
      H1    -9.79570    8.89889   -1.92835

