60
frame 2 | Written by MDAnalysis XYZWriter (release 2.4.3)
       H     4.30576    6.48729   15.35267
       O     3.99937    5.82083   14.71586
      H1     4.72623    5.16871   14.60399
       H     2.80491    8.20643   11.53731
       O     3.30579    8.46166   10.74172
      H1     2.61191    8.65770   10.05350
       H     4.33347    6.12934   12.96505
       O     4.31068    6.16321   11.99700
      H1     3.57333    5.53462   11.84938
       H     0.97540    6.80887    9.36821
       O     0.07655    6.95707    9.72910
      H1     0.18134    6.69941   10.63955
       H    -0.75924    2.19100   10.67242
       O    -0.14979    2.06396   11.41057
      H1    -0.21458    2.90828   11.86977
       H     1.83113    4.78838   11.62396
       O     2.52537    4.16911   11.29858
      H1     2.09117    3.80765   10.50423
       H     3.01467    1.60161   11.29690
       O     2.26799    0.98800   11.24223
      H1     1.54937    1.65164   11.29651
       H     1.49609    8.18354   13.68363
       O     1.45779    8.02117   12.72530
      H1     1.20836    8.88383   12.36380
       H    -0.62311    7.42210   14.81785
       O    -0.07948    6.74876   15.24007
      H1     0.60333    7.21523   15.74353
       H    -1.74589    8.16018   11.01328
       O    -2.59363    7.69910   10.97327
      H1    -3.26487    8.28849   11.32585
       H     2.19975    5.65282   16.24626
       O     2.13117    6.37919   16.85835
      H1     2.02075    5.95119   17.69683
       H     4.08352    2.87198   15.98575
       O     3.64248    2.86387   15.12128
      H1     3.39988    3.81303   14.97910
       H    -0.54950    5.67192   12.59631
       O     0.32669    5.50960   12.20581
      H1     0.80610    6.29569   12.53533
       H    -2.40578    5.50981    7.65526
       O    -2.11405    5.49293    8.57000
      H1    -1.90890    6.43303    8.69299
       H    -3.07939    7.90628   15.20457
       O    -2.71782    7.78453   14.34751
      H1    -2.80777    6.80943   14.25388
       H    -2.67880    5.71523   11.49116
       O    -2.50262    5.05009   12.17631
      H1    -3.10887    4.33260   11.95177
       H    -1.64120    3.82719    9.58988
       O    -1.98029    2.92798    9.56873
      H1    -2.60087    2.96164   10.31486
       H    -1.64944    4.35926   15.36060
       O    -2.54550    4.51670   15.01012
      H1    -2.45776    4.67753   14.06485
       H    -0.30577    5.30199   16.46600
       O    -0.30777    4.37305   16.80182
      H1     0.24430    4.45322   17.59059
       H    -0.54095   10.52619   10.76578
       O    -0.32556    9.90166   11.46276
      H1    -1.07416   10.01303   12.05608

