60
frame 2 | Written by MDAnalysis XYZWriter (release 2.4.3)
       H     3.74241  -13.25828   13.87574
       O     4.40704  -12.61012   14.19002
      H1     5.18119  -13.11444   14.44833
       H     1.03456   -8.18072   13.39611
       O     1.35344   -7.37795   13.83485
      H1     2.20745   -7.65504   14.18938
       H     1.68343  -14.44687   14.22175
       O     2.38450  -14.30735   13.57763
      H1     1.84293  -13.73664   13.03250
       H     1.14400  -12.84537   10.94467
       O     0.92358  -12.71978   11.86653
      H1     0.76238  -11.77862   11.82802
       H    -3.95785  -11.69813   15.64062
       O    -3.23522  -12.30031   15.38504
      H1    -3.51752  -12.59645   14.50180
       H    -1.24128  -11.02178   18.87566
       O    -0.30649  -11.02719   18.52026
      H1    -0.34112  -10.44498   17.72779
       H    -1.99687   -8.96809   11.89581
       O    -2.22234   -9.70273   11.34145
      H1    -1.56443   -9.66375   10.60060
       H    -0.67638  -14.98612   14.92173
       O    -0.05380  -14.28153   15.11065
      H1    -0.02819  -14.23783   16.07224
       H    -0.96625  -12.60134   11.72264
       O    -1.78320  -12.44190   11.31200
      H1    -1.93379  -11.50453   11.51577
       H    -3.80449  -13.72859   16.96882
       O    -3.80986  -14.62088   17.29136
      H1    -3.50511  -15.11188   16.53057
       H    -4.55570  -11.62409   12.52019
       O    -4.26677  -12.51752   12.34739
      H1    -3.33293  -12.44658   12.10683
       H     3.08010  -11.88055   16.63573
       O     2.89637  -10.93019   16.63686
      H1     3.76769  -10.55575   16.77789
       H    -1.54946   -9.54382   15.57635
       O    -0.68435   -9.65325   15.97330
      H1    -0.32209  -10.38523   15.46023
       H    -1.66406  -16.95504   10.33310
       O    -1.66700  -16.37332   11.10414
      H1    -0.73352  -16.29538   11.38233
       H    -0.37932  -12.64256   14.43296
       O    -0.60297  -11.75470   14.17149
      H1    -1.46854  -11.62226   14.64076
       H    -3.71687   -9.32655   13.99355
       O    -2.77652   -9.34398   14.29006
      H1    -2.45157   -8.49380   13.92206
       H     0.13993  -12.82933   17.92166
       O    -0.01391  -13.79116   17.73518
      H1    -0.78025  -14.00018   18.33160
       H    -2.23363  -16.65494   13.81904
       O    -1.56357  -16.63021   14.50852
      H1    -2.00862  -17.04687   15.28642
       H     1.68931  -15.58592   12.52533
       O     1.16678  -16.08018   11.90104
      H1     1.70332  -16.10415   11.10935
       H     1.98543  -10.33581   13.10820
       O     1.16132  -10.12127   12.64799
      H1     0.51528  -10.59887   13.17629

