60
frame 4 | Written by MDAnalysis XYZWriter (release 2.4.3)
       H     0.39300  -12.15846    5.88886
       O     0.33442  -11.29393    6.33127
      H1     1.07266  -11.18100    6.99168
       H     0.72705  -12.02187   11.79945
       O     0.65445  -12.22260   10.87010
      H1     0.36527  -11.42537   10.34207
       H     1.88994  -11.05279    1.37477
       O     2.19361  -10.45088    2.05000
      H1     1.62708   -9.74190    1.81485
       H    -3.91604  -10.82314    6.49768
       O    -3.68827  -10.02562    5.97266
      H1    -3.30560  -10.31588    5.16370
       H    -0.16497  -13.64651    4.72881
       O     0.34760  -13.72475    5.53680
      H1     1.26720  -13.64395    5.14563
       H     5.11532  -11.79012    8.69319
       O     4.23588  -12.18834    8.58390
      H1     4.51704  -12.88586    7.99455
       H    -3.91572  -16.07824    6.03437
       O    -3.21559  -15.59983    6.59718
      H1    -2.56048  -15.51185    5.92674
       H     3.14521  -16.15449    7.19235
       O     3.48261  -16.26128    8.05090
      H1     2.69023  -16.01942    8.59620
       H     0.66602   -9.86217    9.20117
       O    -0.24155  -10.17535    8.95728
      H1    -0.11370  -10.74695    8.24088
       H    -2.27081   -9.09206    6.45679
       O    -1.52312   -8.56389    6.79323
      H1    -1.19815   -9.02079    7.53460
       H     5.53120  -10.71889    5.99212
       O     5.28481  -11.28759    5.23674
      H1     6.05689  -11.37276    4.65888
       H    -3.88208  -14.15330    5.77644
       O    -4.20831  -13.28518    5.44333
      H1    -4.77471  -13.37323    4.64790
       H    -1.74338  -10.11036    3.57594
       O    -2.37417  -10.84848    3.70833
      H1    -2.87839  -10.93265    2.86788
       H     0.89470  -17.04608    6.26866
       O     1.41524  -16.52132    5.64000
      H1     0.93442  -15.68848    5.68444
       H     0.17671   -9.90976    4.75695
       O    -0.36365   -9.35515    4.21676
      H1    -0.66675   -8.63206    4.78835
       H     3.27212  -10.79505    7.63655
       O     2.49720  -10.22619    7.45109
      H1     2.66604  -10.02861    6.50281
       H     3.06292  -10.28832    3.77819
       O     3.21980   -9.81729    4.60798
      H1     4.09351  -10.21244    4.91261
       H     0.35240  -11.39930    2.24054
       O     0.18004  -12.10503    1.53540
      H1    -0.52948  -11.64810    1.06993
       H     3.82174  -13.13994    5.21720
       O     3.01086  -13.63838    5.11797
      H1     3.05870  -14.26184    4.41440
       H    -0.86809  -13.24907    2.71245
       O    -1.39745  -13.64658    3.39384
      H1    -1.85235  -12.90939    3.84974

