60
frame 2 | Written by MDAnalysis XYZWriter (release 2.4.3)
       H    -8.76940   11.65345   -1.65333
       O    -9.69073   11.49025   -1.41627
      H1    -9.60712   11.00368   -0.57628
       H    -8.70065    5.50600   -1.40887
       O    -9.49716    6.00682   -1.23369
      H1    -9.26812    6.82644   -1.72317
       H   -12.15088    6.10117   -5.12936
       O   -12.67082    6.88339   -4.89585
      H1   -12.16880    7.66819   -5.13611
       H    -6.52407   12.51859   -1.70980
       O    -7.03310   11.70216   -1.51529
      H1    -7.15313   11.75709   -0.57693
       H   -12.87091    6.23950   -0.98151
       O   -12.17366    5.91145   -0.41141
      H1   -11.42179    5.84746   -1.03933
       H   -10.63879    2.91583   -2.94340
       O   -10.86290    3.41024   -2.14633
      H1   -10.38827    4.24070   -2.23790
       H    -5.66299   10.52833   -1.03704
       O    -4.87457   10.53719   -0.45120
      H1    -4.69724    9.59885   -0.32768
       H    -4.66401    6.46275   -0.63327
       O    -4.61017    5.61222   -1.06142
      H1    -4.08114    5.10676   -0.47092
       H    -6.50188    7.08329   -4.04704
       O    -6.76189    7.90444   -3.62762
      H1    -5.91078    8.36242   -3.58180
       H    -8.91481    6.60259   -4.76657
       O    -9.19010    5.72598   -4.43742
      H1    -9.14751    5.20165   -5.24935
       H    -9.12317    8.82913   -0.06162
       O    -9.49187    9.20207    0.76379
      H1   -10.14010    8.57759    1.08570
       H    -8.27229    8.81329   -6.54684
       O    -8.15386    8.00834   -6.01241
      H1    -7.50883    8.28540   -5.34195
       H    -7.61094   10.55898   -4.77200
       O    -6.99758   11.01925   -5.38628
      H1    -7.20068   11.94130   -5.25278
       H   -10.19089    9.53154   -6.12814
       O   -10.73886    8.98047   -6.72120
      H1   -10.14216    8.22425   -6.83210
       H    -5.63861    4.92885   -5.10894
       O    -5.59341    5.58133   -4.40120
      H1    -4.67630    5.65778   -4.16800
       H    -9.31897   11.28302   -4.77343
       O    -9.64806   10.37828   -4.62542
      H1   -10.29645   10.47864   -3.92629
       H    -8.34982    6.12234    0.44827
       O    -7.97525    5.58745    1.12925
      H1    -8.73715    5.12393    1.50987
       H    -7.16214    4.54155   -3.00409
       O    -7.24496    4.48809   -2.03824
      H1    -6.39704    4.65634   -1.64321
       H   -12.27460    9.79520   -2.68745
       O   -11.89703    8.99735   -2.29870
      H1   -11.78654    9.17344   -1.33571
       H    -8.46198    8.57393   -2.49476
       O    -8.92326    8.60316   -1.65054
      H1    -9.79570    8.89889   -1.92835

