60
frame 2 | Written by MDAnalysis XYZWriter (release 2.4.3)
       H    13.15123  -16.95322   17.32123
       O    12.50505  -16.45926   17.80555
      H1    13.00091  -16.12543   18.56066
       H    17.64083  -12.88669   18.13622
       O    16.88630  -13.48392   18.31570
      H1    16.11049  -12.89273   18.35635
       H    11.84307   -6.93670   17.94495
       O    11.94350   -6.94686   18.91721
      H1    12.17719   -6.03833   19.12478
       H    19.23406  -15.61050   16.89892
       O    18.99821  -15.79267   17.83081
      H1    18.04220  -15.95319   17.77577
       H    19.08273   -9.66472   18.09069
       O    18.30688   -9.23440   17.68763
      H1    17.57771   -9.81612   17.75499
       H     9.03222   -9.79981   17.95868
       O     9.12890   -9.33702   17.13191
      H1     9.57819   -9.99635   16.57246
       H    15.38209   -8.82589   14.81048
       O    14.51573   -9.09150   15.11637
      H1    14.02041   -9.37832   14.34006
       H    17.80411  -13.02591   15.07718
       O    18.21016  -12.21854   14.70904
      H1    17.71167  -12.01002   13.90588
       H    15.00783  -16.69396   16.09012
       O    14.37594  -17.33835   15.76308
      H1    13.91053  -16.93357   14.99044
       H    16.21460  -14.91668   17.50477
       O    16.02543  -15.87526   17.41607
      H1    15.73838  -16.15279   18.28913
       H    13.20015  -13.38455   15.26729
       O    13.85625  -13.44945   14.57724
      H1    13.41982  -14.05381   13.95656
       H    16.43210  -14.28302   13.65108
       O    16.30507  -14.48080   14.60011
      H1    15.44288  -14.03536   14.76599
       H    11.76741  -13.54032   17.69643
       O    12.67234  -13.69002   17.40284
      H1    12.81613  -14.64898   17.44022
       H     9.61255  -14.53567   18.66174
       O    10.24161  -13.85467   18.46289
      H1    10.74880  -13.79618   19.27296
       H    12.11968  -10.66815   16.32568
       O    12.85173  -10.61059   16.94594
      H1    13.48772  -10.02806   16.51917
       H    10.47485  -11.14842   14.73332
       O    10.44647  -11.26574   15.70168
      H1    10.05672  -12.14480   15.76888
       H    14.53684  -11.40641   18.36873
       O    14.46044  -12.18092   18.90322
      H1    13.88642  -12.74771   18.35411
       H    10.64266  -15.04640   15.17674
       O    11.20749  -15.80792   15.40914
      H1    11.80754  -15.44233   16.10090
       H    13.93449  -11.47352   13.55201
       O    14.10953  -10.76354   12.91955
      H1    13.49646  -10.99035   12.22164
       H    15.93578  -11.75470   16.49769
       O    15.98911  -10.91540   16.95667
      H1    15.58257  -10.31525   16.31434

