60
frame 2 | Written by MDAnalysis XYZWriter (release 2.4.3)
       H    -7.05494  -11.21218  -11.52311
       O    -7.57295  -11.84578  -11.02122
      H1    -7.13247  -11.81285  -10.18026
       H   -12.57281   -9.73313   -9.72181
       O   -12.28614  -10.62654   -9.48018
      H1   -11.93077  -10.96145  -10.29694
       H    -9.35218  -15.62299  -16.89093
       O    -9.95957  -14.87331  -16.83898
      H1   -10.80577  -15.32920  -16.70833
       H   -12.61064  -14.20114  -16.17860
       O   -12.72392  -13.41230  -15.66622
      H1   -12.27668  -13.55944  -14.85794
       H   -12.15815   -9.59456  -14.74451
       O   -12.47826   -8.68598  -14.88809
      H1   -12.40304   -8.46822  -15.80878
       H   -11.61619   -8.14219  -12.82472
       O   -11.60915   -8.79477  -12.10796
      H1   -10.66442   -8.82932  -11.80977
       H   -13.89194  -11.04714  -13.72726
       O   -13.90991  -11.43133  -12.83966
      H1   -14.66167  -12.03616  -12.90096
       H    -9.55184  -16.18922  -11.76063
       O    -9.78696  -15.56985  -12.46637
      H1    -9.09692  -14.90296  -12.39175
       H   -10.66439  -17.05670  -13.66227
       O   -11.34436  -17.72299  -13.79270
      H1   -11.10176  -18.45417  -13.19528
       H    -9.30863   -9.20249   -9.89923
       O    -9.16087   -9.38577  -10.83307
      H1    -8.42580  -10.04037  -10.83872
       H    -9.93325  -11.07253  -11.86482
       O   -10.30720  -11.30582  -12.73138
      H1   -11.09057  -10.73092  -12.75133
       H    -7.04892  -16.24580  -13.33736
       O    -7.60022  -16.67883  -14.02213
      H1    -8.41727  -16.18294  -13.97654
       H   -11.05702  -13.92477   -9.51676
       O   -11.02417  -13.18894  -10.13043
      H1   -11.48362  -13.45619  -10.90829
       H    -7.07576  -13.65667  -13.86245
       O    -7.78409  -13.72362  -13.22106
      H1    -7.62368  -13.00982  -12.59844
       H   -13.59440  -14.62339   -9.54644
       O   -13.58153  -15.46187   -9.08824
      H1   -13.30328  -16.11217   -9.75143
       H   -11.11545  -14.29235  -12.73547
       O   -11.71127  -13.62471  -13.06345
      H1   -11.11166  -12.84760  -12.96052
       H   -14.77721  -15.46753  -12.40795
       O   -13.89459  -15.39236  -12.06539
      H1   -13.45707  -14.75317  -12.64778
       H   -12.93176  -12.66199  -10.15255
       O   -13.83170  -12.99266  -10.18891
      H1   -13.91842  -13.29614  -11.09557
       H   -10.65971  -11.24114  -15.40161
       O   -11.54283  -11.03267  -15.74428
      H1   -11.93243  -11.89042  -15.83405
       H    -9.07472  -12.77429  -14.46194
       O    -9.20301  -12.53265  -15.38110
      H1    -9.20239  -13.34626  -15.92785

