60
frame 2 | Written by MDAnalysis XYZWriter (release 2.4.3)
       H    14.22131    3.56635   13.10577
       O    13.77694    4.41236   13.19972
      H1    13.04975    4.26017   13.83590
       H    14.17174   -1.29431   18.54479
       O    13.99615   -2.23356   18.37444
      H1    13.14411   -2.42114   18.78621
       H    15.04053   -0.24364    9.73047
       O    15.97278   -0.26432    9.52635
      H1    16.41037   -0.14135   10.38099
       H    13.15653   -0.74201   16.50305
       O    12.99800   -0.60200   15.56396
      H1    12.11634   -0.98550   15.42864
       H    17.79063    3.25309   11.73275
       O    17.11851    3.19678   11.03836
      H1    16.78498    4.10499   10.96980
       H    16.90097   -1.93143   17.32886
       O    17.22028   -2.11120   18.22463
      H1    18.16470   -2.07794   18.15225
       H    15.47008    1.35577   17.12379
       O    15.61364    1.92807   16.36366
      H1    15.85776    1.34504   15.65591
       H    18.42808    1.56280   15.68049
       O    18.92633    1.75525   16.49447
      H1    18.43851    2.47819   16.86027
       H    16.05652    3.98322   14.23900
       O    16.85489    4.51392   14.18873
      H1    17.49454    3.88527   13.79498
       H    16.05967   -1.78334   15.02096
       O    16.20475   -1.20592   15.80244
      H1    16.96437   -0.62622   15.53571
       H    18.14721   -0.49921   11.31021
       O    17.30138   -0.46027   11.83115
      H1    16.80093   -1.27090   11.60760
       H    14.09978    1.17469   18.86442
       O    14.66960    0.51055   18.48316
      H1    15.48896    0.55088   19.01309
       H    17.43953    0.21004   13.59200
       O    18.07413    0.35239   14.30649
      H1    18.61524   -0.46971   14.37311
       H    11.87001    2.40963   15.04055
       O    12.77179    2.04768   15.03875
      H1    12.65925    1.10718   15.17684
       H    14.19536    5.09256   17.75513
       O    14.47769    6.00070   17.71258
      H1    15.40780    5.95279   17.59659
       H    16.12379    2.43096   12.21152
       O    15.67572    2.17762   13.05283
      H1    15.03502    1.49545   12.81186
       H    14.61192   -3.14531   14.00491
       O    14.37111   -2.21297   13.87345
      H1    14.12781   -1.89238   14.73915
       H    16.67998    3.52460   16.82173
       O    17.31891    4.27106   16.91865
      H1    17.40513    4.61101   16.00625
       H    13.20656    0.82818   13.35940
       O    13.44410    0.18388   12.68045
      H1    13.57281   -0.63513   13.17752
       H    13.44598    3.20331   16.66995
       O    13.05501    3.63656   17.44614
      H1    13.02421    2.90063   18.06917

