60
frame 2 | Written by MDAnalysis XYZWriter (release 2.4.3)
       H    -2.04487  -15.76438   -8.25230
       O    -1.83247  -16.69654   -8.51322
      H1    -2.59377  -16.90737   -9.04899
       H     1.10388  -13.31322   -9.77049
       O     0.83149  -12.64596   -9.16667
      H1     0.41332  -12.01270   -9.72613
       H     0.39812  -12.59631  -16.18585
       O     0.48115  -13.54701  -15.98598
      H1     1.26485  -13.79483  -16.50977
       H    -0.25869  -16.85826  -10.41108
       O    -0.60148  -17.38872  -11.14498
      H1    -1.25473  -17.96094  -10.71940
       H     0.20632  -14.54421  -14.00694
       O     0.27736  -15.25225  -13.36687
      H1    -0.36004  -15.90374  -13.66736
       H    -1.04880  -11.84623  -12.62693
       O    -0.67639  -12.61845  -12.17737
      H1    -1.44950  -13.08129  -11.83679
       H    -2.04429  -14.08815  -10.07645
       O    -2.22027  -14.36552  -10.97962
      H1    -1.76124  -15.20322  -11.02098
       H     3.82453  -10.85999  -10.23714
       O     3.29224  -11.66696  -10.08764
      H1     2.53732  -11.31652   -9.65182
       H     2.13218  -15.52470  -13.83689
       O     3.01208  -15.89013  -13.73218
      H1     2.86215  -16.77510  -14.07474
       H     4.20869  -12.85253  -12.41835
       O     4.70971  -13.39744  -11.78942
      H1     4.52708  -13.03413  -10.92646
       H     4.04561  -14.24069  -13.99643
       O     3.81625  -13.35541  -14.28876
      H1     2.89581  -13.25210  -14.10941
       H     1.21444  -13.18589   -6.03488
       O     0.47938  -12.86389   -6.50988
      H1     0.84021  -12.65694   -7.38215
       H    -1.07112  -11.27666  -10.82815
       O    -0.53240  -10.71052  -10.24308
      H1    -1.00579  -10.64099   -9.40984
       H     0.40808  -18.36158  -12.19141
       O     0.52824  -19.18848  -12.69004
      H1     0.94254  -18.87279  -13.52572
       H     0.98800  -14.91092  -11.51688
       O     1.76406  -14.69510  -10.98110
      H1     2.49267  -14.81594  -11.63162
       H     0.57171  -14.71337   -8.17850
       O     1.35540  -15.27425   -8.08157
      H1     1.42808  -15.68677   -8.96522
       H     3.93078  -13.03245   -7.06667
       O     4.08609  -13.93930   -7.36516
      H1     3.20944  -14.23170   -7.69262
       H     2.46094  -12.23955  -11.77492
       O     1.86157  -12.10166  -12.50715
      H1     1.01471  -12.37785  -12.11003
       H     5.72031  -15.02740  -12.14205
       O     6.27750  -15.70376  -12.55049
      H1     6.93521  -15.94447  -11.92349
       H    -2.43918  -17.25687  -14.92199
       O    -1.61321  -17.25331  -14.43536
      H1    -1.21754  -18.10784  -14.64260

