60
frame 2 | Written by MDAnalysis XYZWriter (release 2.4.3)
       H     1.92608   -7.23860  -10.22169
       O     1.74979   -6.78926  -11.06202
      H1     1.93859   -5.84032  -10.89600
       H     3.83329   -7.04546   -6.74649
       O     4.37420   -6.95617   -7.53267
      H1     5.09324   -6.35643   -7.24797
       H     5.50668   -1.24947   -4.18722
       O     5.44174   -1.99196   -4.77163
      H1     5.87549   -1.73296   -5.61431
       H     4.86795   -6.88369  -11.70013
       O     5.67604   -6.50312  -11.32189
      H1     5.33402   -5.95112  -10.60628
       H     4.24271   -1.10483  -11.07126
       O     3.39175   -1.49893  -11.35221
      H1     3.34026   -1.33442  -12.31598
       H     3.29043   -3.20363  -11.12859
       O     3.33510   -4.17257  -11.08913
      H1     4.01281   -4.37997  -10.43395
       H     7.64003   -3.95732  -11.36947
       O     7.15941   -3.21926  -11.82037
      H1     6.78125   -3.77652  -12.52713
       H     8.85706   -4.28315   -9.30044
       O     8.27147   -4.94484   -9.68255
      H1     7.79176   -5.20858   -8.87761
       H     0.91703   -5.94632   -7.15422
       O     1.47132   -5.55652   -7.82848
      H1     1.90277   -4.81926   -7.38224
       H     7.89997   -8.27058   -7.76823
       O     8.06950   -7.67370   -7.04998
      H1     7.73452   -8.19725   -6.30967
       H     6.78969   -3.21837   -4.48206
       O     7.32406   -3.97840   -4.21835
      H1     8.16283   -3.84465   -4.70636
       H     5.16104   -4.10113   -8.27485
       O     5.35908   -4.22658   -9.20804
      H1     5.54871   -3.31628   -9.46472
       H     7.91404   -2.04319   -7.10853
       O     6.96413   -2.18590   -7.07609
      H1     6.86616   -3.13713   -7.12938
       H     6.65903    0.73330   -7.55169
       O     6.07933    0.23698   -8.13827
      H1     6.11867   -0.64534   -7.79207
       H     7.20068   -4.99463   -6.09477
       O     7.01147   -5.13272   -7.03385
      H1     7.24256   -6.09544   -7.16845
       H     2.23431   -0.98468   -7.87404
       O     2.50346   -0.88694   -6.94562
      H1     2.28165    0.02751   -6.73587
       H     3.68133   -6.32152   -4.40157
       O     4.54578   -6.11240   -4.78799
      H1     5.11791   -6.12284   -4.00874
       H     3.14087   -7.61047   -8.41217
       O     2.59593   -8.23264   -8.98116
      H1     1.71039   -8.17658   -8.58842
       H     4.30230   -4.57176   -5.90196
       O     4.21783   -4.22370   -6.80162
      H1     4.03704   -5.00001   -7.33753
       H     2.85924   -1.57710   -4.96526
       O     2.53413   -1.29426   -4.06581
      H1     3.25882   -1.47347   -3.46140

