60
frame 2 | Written by MDAnalysis XYZWriter (release 2.4.3)
       H   -14.86048    9.41059   12.48358
       O   -14.42191   10.23341   12.35363
      H1   -14.78565   10.61555   11.52667
       H   -16.27546   11.33531   10.43183
       O   -15.36719   11.73580   10.43956
      H1   -15.06149   11.54077    9.54392
       H   -11.86131   11.20498    9.90744
       O   -11.96510   11.88747    9.25720
      H1   -12.36520   11.43630    8.52552
       H   -18.27778    7.95253    9.14742
       O   -17.60229    8.48505    9.59049
      H1   -17.98359    8.62605   10.48071
       H   -12.34475    9.51844    6.28282
       O   -12.13493    9.84459    7.15981
      H1   -11.63979    9.09227    7.55852
       H   -14.99344   15.68480    7.14753
       O   -15.16521   14.73003    7.13783
      H1   -15.34038   14.51766    8.06220
       H   -12.10465   11.07882   12.95435
       O   -12.31576   11.58484   13.73870
      H1   -12.79177   10.89034   14.25421
       H   -16.09720   12.35256   14.44856
       O   -16.53720   12.31366   13.60120
      H1   -15.86377   12.65185   13.03083
       H   -18.72793   12.30015    9.87575
       O   -18.38248   11.51057   10.30009
      H1   -18.52117   11.63941   11.23644
       H   -11.54123    9.54394   11.39624
       O   -11.31940   10.45356   11.64833
      H1   -10.38808   10.34216   11.88646
       H   -13.28769   14.77033    7.58168
       O   -12.43915   14.34328    7.39549
      H1   -11.96239   14.57448    8.21636
       H   -17.01003   11.73867    7.02378
       O   -16.90475   12.38942    6.33223
      H1   -15.93888   12.55208    6.38521
       H   -13.38081    8.93937   10.29044
       O   -13.06715    8.34498   10.98886
      H1   -13.42104    8.81651   11.80134
       H   -13.85808   12.71248   12.88225
       O   -14.37619   13.49696   12.71597
      H1   -13.98497   13.82632   11.91070
       H   -13.26057   14.66344   10.15418
       O   -12.77999   14.03929   10.71645
      H1   -12.28796   13.48545   10.07884
       H   -18.38352    9.98966    8.51336
       O   -18.82679   10.46220    7.78518
      H1   -18.84423    9.89959    7.01136
       H   -15.74424   13.44402   10.34680
       O   -15.87662   14.25098    9.84703
      H1   -16.18025   14.85521   10.52870
       H   -16.12543    9.02432    6.79920
       O   -15.65679    8.44465    7.48491
      H1   -16.17466    8.54237    8.28634
       H   -14.99708   10.01439    7.92243
       O   -14.94891   10.96350    7.90390
      H1   -14.28712   11.13036    7.22104
       H   -13.46846   10.89723    4.83861
       O   -13.63361   11.75207    5.28683
      H1   -13.14986   12.38439    4.74128

