60
frame 2 | Written by MDAnalysis XYZWriter (release 2.4.3)
       H   -17.92724   -2.98587   -9.84407
       O   -18.73109   -3.24298   -9.33490
      H1   -18.35257   -3.31671   -8.43625
       H   -13.53169   -2.66647   -5.01606
       O   -13.80218   -2.91885   -5.89211
      H1   -14.58716   -2.41755   -6.08838
       H   -18.09641   -5.87197  -13.65254
       O   -17.30507   -6.31523  -13.30955
      H1   -17.60812   -7.22958  -13.41987
       H   -16.86520   -5.10807  -10.45504
       O   -16.28651   -5.37394  -11.15623
      H1   -16.89095   -5.55035  -11.89332
       H   -13.35319   -0.96261   -9.22410
       O   -13.59830   -0.32009   -8.57811
      H1   -14.47084   -0.08930   -8.91212
       H   -14.72327    0.70594  -11.05203
       O   -15.40524    0.95414  -10.38369
      H1   -16.00512    0.19478  -10.45047
       H   -17.69305   -8.60926  -10.74396
       O   -18.52061   -8.07793  -10.69176
      H1   -18.33816   -7.35280  -10.07242
       H   -16.50443    2.04316  -13.13536
       O   -16.87915    2.10046  -12.22646
      H1   -16.26346    1.54054  -11.72719
       H   -14.00305   -5.02175  -10.34670
       O   -14.13111   -4.29794   -9.72737
      H1   -13.60016   -3.65092  -10.18369
       H   -13.24675   -2.32584  -13.87130
       O   -13.76976   -2.49626  -13.06851
      H1   -14.37310   -3.22823  -13.27453
       H   -14.87129   -5.75817   -8.73056
       O   -15.00194   -6.50591   -8.11319
      H1   -14.17788   -6.52058   -7.58963
       H   -18.26334   -6.24578   -7.57870
       O   -17.82259   -6.45169   -8.44080
      H1   -16.89241   -6.62521   -8.19827
       H   -16.15834   -1.85284   -6.81774
       O   -16.31175   -2.62096   -7.35803
      H1   -15.95430   -2.43309   -8.24380
       H   -13.94013   -1.01216  -12.50216
       O   -13.67423   -0.12297  -12.23552
      H1   -13.61901    0.28114  -13.11694
       H   -16.27843   -4.98869  -13.82570
       O   -15.90442   -4.08180  -13.94550
      H1   -15.67983   -3.96286  -14.87559
       H   -15.81990   -4.83269   -6.42168
       O   -15.96401   -5.20018   -5.54320
      H1   -15.16982   -5.66430   -5.30512
       H   -15.74694   -2.77278  -10.30761
       O   -16.39716   -2.11760  -10.04299
      H1   -16.81650   -1.88597  -10.89294
       H   -16.87321    1.69566   -7.77077
       O   -17.15139    0.86620   -7.37746
      H1   -16.40560    0.56525   -6.84010
       H   -16.86934   -2.52832  -13.31051
       O   -17.32554   -2.03729  -12.64997
      H1   -18.08427   -1.70541  -13.13241
       H   -17.67111   -1.39717   -4.14884
       O   -17.81511   -2.06323   -4.78736
      H1   -17.97350   -2.87529   -4.26083

