60
frame 2 | Written by MDAnalysis XYZWriter (release 2.4.3)
       H   -14.72598  -14.42615    3.66154
       O   -15.50850  -14.03947    3.31524
      H1   -15.10425  -13.35844    2.80431
       H   -14.27579  -13.82258    6.32125
       O   -14.36273  -13.28059    7.12010
      H1   -14.72891  -13.92906    7.72221
       H    -9.01483   -9.76419    1.80525
       O    -8.94990  -10.55536    2.34476
      H1    -8.89228  -11.23304    1.66590
       H   -12.52445  -11.77790    2.05189
       O   -13.20371  -11.08700    2.01630
      H1   -13.48508  -10.86279    2.91991
       H   -11.97107   -7.21005    5.48559
       O   -11.32275   -7.94957    5.59939
      H1   -11.88465   -8.71359    5.84246
       H   -13.63054   -7.69158    0.29664
       O   -14.50309   -7.53400    0.73976
      H1   -14.22724   -7.51734    1.68797
       H   -10.69780  -11.94488    4.61680
       O   -10.99564  -11.33445    3.93530
      H1   -10.28639  -11.37540    3.29822
       H   -14.53344  -11.08660   -1.28915
       O   -14.56461  -11.99419   -1.65346
      H1   -15.48806  -12.14542   -1.58230
       H   -16.02909  -11.37638    5.42665
       O   -15.40974  -11.20648    6.12222
      H1   -15.39567  -12.06128    6.53428
       H   -11.74700   -9.75248    0.43622
       O   -11.59186   -8.91337    0.83443
      H1   -11.78220   -9.11525    1.77504
       H   -12.06624   -8.23024    3.95544
       O   -12.50633   -8.07420    3.10149
      H1   -13.37578   -8.47531    3.25066
       H   -13.51195  -14.38782    0.43329
       O   -12.54420  -14.30560    0.49779
      H1   -12.32625  -14.84490   -0.29948
       H   -10.59677  -14.11525    3.18636
       O   -11.48603  -14.53152    3.18779
      H1   -11.81093  -14.47277    2.27081
       H   -14.35863  -10.40422    0.73747
       O   -14.96712  -10.11875    0.06101
      H1   -14.87878   -9.13780    0.10909
       H   -17.23039  -12.54729    4.06363
       O   -17.19832  -11.58495    4.05654
      H1   -17.92948  -11.25144    3.52483
       H   -16.18893  -11.35273    0.80453
       O   -16.48707  -12.08629    1.38536
      H1   -16.51769  -11.68856    2.27573
       H   -15.75377   -9.18447    3.16910
       O   -14.85656   -9.38234    3.45736
      H1   -14.91226   -9.36890    4.42520
       H   -16.22740   -8.25924    5.84792
       O   -16.98862   -8.67118    5.35957
      H1   -16.92022   -9.57152    5.67302
       H   -12.53509  -10.90810    4.95514
       O   -12.82293  -10.26461    5.61002
      H1   -13.62490  -10.61274    6.05530
       H   -15.77713  -13.49246    0.62218
       O   -15.31837  -14.27929    0.33006
      H1   -15.56534  -14.95079    0.96786

