60
frame 2 | Written by MDAnalysis XYZWriter (release 2.4.3)
       H     0.54722  -13.45247    8.85318
       O     1.38942  -13.51564    9.30406
      H1     1.65078  -14.44780    9.24872
       H     1.68343  -14.44687   14.22175
       O     2.38450  -14.30735   13.57763
      H1     1.84293  -13.73664   13.03250
       H     1.14400  -12.84537   10.94467
       O     0.92358  -12.71978   11.86653
      H1     0.76238  -11.77862   11.82802
       H    -5.59600  -10.21871    9.40826
       O    -4.84444   -9.63051    9.55164
      H1    -5.12308   -8.87306    9.06531
       H    -3.46983  -15.31715    8.84941
       O    -4.39107  -15.59002    8.85805
      H1    -4.89820  -14.79222    9.13208
       H    -3.95785  -11.69813   15.64062
       O    -3.23522  -12.30031   15.38504
      H1    -3.51752  -12.59645   14.50180
       H    -1.99687   -8.96809   11.89581
       O    -2.22234   -9.70273   11.34145
      H1    -1.56443   -9.66375   10.60060
       H    -0.96625  -12.60134   11.72264
       O    -1.78320  -12.44190   11.31200
      H1    -1.93379  -11.50453   11.51577
       H     1.84461   -9.78997   10.77162
       O     1.94718   -9.30920    9.91711
      H1     2.92340   -9.20096    9.97804
       H    -1.20394  -11.78169    8.22266
       O    -0.67522  -12.36177    7.66683
      H1    -1.29070  -13.05465    7.37996
       H    -3.79986  -17.59971   12.97135
       O    -4.08066  -16.78084   12.60998
      H1    -3.36478  -16.46865   12.01110
       H    -1.70126  -14.92754    9.98209
       O    -1.81842  -14.46669    9.14339
      H1    -2.14852  -13.61315    9.42652
       H    -3.61687  -11.38309    8.60647
       O    -3.64433  -12.22348    8.12782
      H1    -4.58826  -12.31783    7.92251
       H    -4.55570  -11.62409   12.52019
       O    -4.26677  -12.51752   12.34739
      H1    -3.33293  -12.44658   12.10683
       H    -6.12366  -14.21785   10.81249
       O    -5.90408  -13.59316   10.09663
      H1    -5.26787  -13.05755   10.53938
       H    -1.66406  -16.95504   10.33310
       O    -1.66700  -16.37332   11.10414
      H1    -0.73352  -16.29538   11.38233
       H    -0.37932  -12.64256   14.43296
       O    -0.60297  -11.75470   14.17149
      H1    -1.46854  -11.62226   14.64076
       H    -3.71687   -9.32655   13.99355
       O    -2.77652   -9.34398   14.29006
      H1    -2.45157   -8.49380   13.92206
       H    -1.59031   -9.45076    8.14161
       O    -1.15944   -9.74482    8.97206
      H1    -0.22142   -9.67678    8.73668
       H     1.98543  -10.33581   13.10820
       O     1.16132  -10.12127   12.64799
      H1     0.51528  -10.59887   13.17629

