60
frame 5 | Written by MDAnalysis XYZWriter (release 2.4.3)
       H     3.85954    5.71346  -19.01366
       O     3.11852    5.45084  -18.48017
      H1     2.56851    6.20232  -18.57261
       H     1.25410    3.22164  -18.73856
       O     1.62838    3.30362  -19.65849
      H1     2.31192    3.95049  -19.59438
       H     7.69096    8.39439  -16.58166
       O     8.68320    8.31529  -16.46229
      H1     9.01459    8.34591  -17.37688
       H     3.52203    8.75484  -16.71456
       O     3.76830    8.50705  -17.65552
      H1     4.12717    9.28308  -18.09673
       H     3.52059   13.80767  -17.83124
       O     4.22762   14.49542  -17.77943
      H1     3.98225   15.20828  -18.40892
       H     2.22413    8.02234  -18.01578
       O     1.41973    7.88512  -18.50238
      H1     0.77989    7.40508  -17.91527
       H     5.73016   13.70863  -18.35837
       O     6.39996   13.00776  -18.48482
      H1     7.26020   13.14913  -18.10373
       H     2.78676    5.93246  -13.87186
       O     1.98537    5.52186  -13.48563
      H1     1.78412    4.78391  -14.13427
       H    -0.70916    8.59080  -15.14024
       O    -0.40938    7.65219  -15.13419
      H1    -0.27202    7.43832  -14.17271
       H     1.12874    8.67841  -15.05549
       O     1.93269    9.16787  -14.95415
      H1     2.14053    9.02622  -14.06282
       H     1.66975   12.02881  -15.76501
       O     2.20654   11.85624  -14.94098
      H1     2.19373   10.86978  -14.92025
       H     7.61850    5.72509  -17.10955
       O     6.97074    5.34926  -16.49487
      H1     6.61481    6.09921  -16.02634
       H     5.72279   11.46166  -18.48859
       O     5.04371   10.73074  -18.62666
      H1     5.44123   10.07316  -19.19193
       H     4.94286    4.76820  -16.06374
       O     4.00323    4.78907  -15.90691
      H1     3.74627    5.05099  -16.78632
       H    -1.89440    5.90779  -18.03347
       O    -1.05245    6.28474  -17.75612
      H1    -0.60554    5.58792  -17.25811
       H     5.70125   10.60851  -14.75750
       O     5.39614    9.80950  -14.28584
      H1     6.00365    9.69226  -13.63190
       H     5.23474    8.09130  -16.74506
       O     5.94858    7.90535  -16.11313
      H1     5.78113    8.46047  -15.38758
       H     2.00769   12.25157  -18.40390
       O     2.68596   12.14987  -17.72489
      H1     3.45424   11.82047  -18.18744
       H     8.82473   11.01395  -14.97029
       O     8.21935   10.82608  -15.66528
      H1     8.44124    9.93779  -15.94717
       H     4.57183    6.96405  -14.95249
       O     4.19657    7.10920  -14.05489
      H1     4.62398    7.92242  -13.73090

