60
frame 2 | Written by MDAnalysis XYZWriter (release 2.4.3)
       H   -10.64491   -5.92129   -4.28205
       O   -11.39107   -5.34201   -4.55422
      H1   -11.98713   -5.45377   -3.81114
       H    -4.50176   -9.03138   -5.67241
       O    -5.27872   -8.61449   -5.29794
      H1    -5.71072   -8.27134   -6.06487
       H    -4.77352  -12.79304   -4.31191
       O    -4.71747  -11.83200   -4.34192
      H1    -5.23722  -11.58657   -5.13725
       H    -7.37872  -12.53853   -2.77650
       O    -7.45942  -13.40985   -3.17538
      H1    -7.16262  -14.04012   -2.53484
       H    -7.38227   -7.39793   -2.23705
       O    -7.64833   -7.04223   -1.39001
      H1    -6.81842   -6.94627   -0.92119
       H    -6.38958   -4.57271   -3.46840
       O    -7.07941   -4.77748   -4.10676
      H1    -6.74145   -4.40434   -4.93172
       H    -4.24452   -7.83468   -3.98094
       O    -3.56935   -7.75440   -3.29853
      H1    -3.08403   -8.56936   -3.30128
       H   -10.55799   -9.35716   -1.56718
       O    -9.93787  -10.02310   -1.25594
      H1   -10.36722  -10.84697   -1.44880
       H   -10.91866   -6.24815    0.19860
       O   -10.51331   -6.04110   -0.66456
      H1   -10.96451   -6.66193   -1.25877
       H   -10.92851   -9.75151   -4.95649
       O   -10.43221   -8.95048   -4.86343
      H1   -10.15228   -8.76032   -5.77342
       H    -6.90504  -11.68235   -6.21476
       O    -6.05699  -11.47745   -6.61504
      H1    -6.15505  -11.88718   -7.47432
       H    -6.73180   -9.06916   -8.50814
       O    -7.21407   -9.07104   -7.67282
      H1    -6.78698   -9.83815   -7.23988
       H    -8.23648   -6.03743   -4.09413
       O    -8.97147   -6.59739   -3.75960
      H1    -8.80556   -6.69095   -2.80708
       H   -12.65401   -8.14980   -2.52698
       O   -11.71024   -8.23100   -2.41761
      H1   -11.30274   -8.28519   -3.30130
       H    -8.50851   -8.11259   -0.02683
       O    -8.84326   -8.34967    0.83740
      H1    -9.78575   -8.56856    0.66551
       H   -10.24125  -11.37407   -7.02697
       O    -9.97042  -11.36353   -7.96616
      H1   -10.68238  -11.79965   -8.36945
       H    -8.39615   -8.89466   -4.15368
       O    -7.74277   -9.53403   -3.80920
      H1    -6.93609   -9.06044   -4.00874
       H   -10.26932   -9.81079   -7.57231
       O   -10.07192   -8.86648   -7.56188
      H1    -9.10350   -8.80216   -7.44860
       H    -8.23738  -11.17099   -4.60236
       O    -8.38120  -11.78720   -5.31518
      H1    -8.57580  -12.58080   -4.82769
       H    -5.77227  -11.09475   -2.24779
       O    -6.67072  -11.02757   -1.87838
      H1    -7.10970  -10.40963   -2.47508

