60
frame 2 | Written by MDAnalysis XYZWriter (release 2.4.3)
       H    -6.51799    3.21273   -6.77237
       O    -5.72467    3.59048   -6.32979
      H1    -5.28884    4.07701   -7.06481
       H    -3.09890    1.78570   -5.63676
       O    -3.74078    1.46402   -6.34001
      H1    -4.42029    2.14260   -6.46892
       H    -3.53141    3.03994   -3.42755
       O    -2.73984    3.32355   -3.88790
      H1    -2.04787    3.26999   -3.20502
       H    -0.97403    1.58058   -4.39563
       O    -1.37281    0.73058   -4.68391
      H1    -0.62508    0.15087   -4.99227
       H    -5.44179    4.63062  -10.06464
       O    -6.11808    3.97575  -10.12613
      H1    -6.85972    4.37701   -9.68255
       H    -7.24464    0.05595   -5.91179
       O    -6.75271   -0.78232   -6.14132
      H1    -7.07476   -1.37219   -5.43991
       H    -4.50224    6.46143   -5.68062
       O    -3.91116    7.21114   -5.90440
      H1    -3.02276    6.85497   -5.94384
       H    -5.04605   -0.03672   -9.44483
       O    -5.19154   -0.72065  -10.12837
      H1    -4.29742   -1.02867  -10.25617
       H    -5.04906   -0.78640   -5.45619
       O    -4.24381   -1.16438   -5.15633
      H1    -3.61572   -0.49893   -5.34347
       H    -0.63308    2.82788   -8.28718
       O     0.03001    3.16262   -7.67434
      H1     0.81491    3.21583   -8.20862
       H    -5.16311    2.16098   -9.63693
       O    -5.12240    1.64349   -8.83984
      H1    -5.99821    1.67794   -8.50763
       H    -4.23136    0.88380   -1.89400
       O    -4.48682    1.80704   -1.86535
      H1    -5.42486    1.73131   -2.12523
       H    -7.97293    1.40852   -4.64002
       O    -8.30070    1.68957   -5.51777
      H1    -9.02410    1.07965   -5.71103
       H    -5.63861    4.92885   -5.10894
       O    -5.59341    5.58133   -4.40120
      H1    -4.67630    5.65778   -4.16800
       H    -2.75025    1.75332   -7.81326
       O    -2.30543    2.03933   -8.61339
      H1    -2.86782    1.83822   -9.35168
       H    -3.43860   -1.65926   -7.02489
       O    -2.94717   -2.19916   -7.64512
      H1    -2.50258   -2.84910   -7.09111
       H    -2.42382    5.09064   -7.90148
       O    -3.25879    4.66926   -8.06482
      H1    -2.99170    3.78970   -8.27347
       H    -8.26152    2.14972   -7.23232
       O    -7.81006    2.25183   -8.10098
      H1    -8.21791    3.03750   -8.51036
       H    -3.48736    5.77260   -2.39668
       O    -2.99684    5.95422   -3.20843
      H1    -2.98407    5.07881   -3.62094
       H    -1.40086    0.04631   -8.72055
       O    -1.23970   -0.76358   -9.22707
      H1    -1.48916   -1.46564   -8.62090

