60
frame 2 | Written by MDAnalysis XYZWriter (release 2.4.3)
       H    -3.33346    7.08410  -10.92081
       O    -2.62770    7.14979  -11.56495
      H1    -1.83674    7.11867  -11.00540
       H    -0.08477    5.39024   -7.49114
       O    -0.79040    5.99786   -7.75339
      H1    -0.45852    6.46608   -8.51908
       H    -6.51799    3.21273   -6.77237
       O    -5.72467    3.59048   -6.32979
      H1    -5.28884    4.07701   -7.06481
       H    -3.09890    1.78570   -5.63676
       O    -3.74078    1.46402   -6.34001
      H1    -4.42029    2.14260   -6.46892
       H    -3.53141    3.03994   -3.42755
       O    -2.73984    3.32355   -3.88790
      H1    -2.04787    3.26999   -3.20502
       H    -5.44179    4.63062  -10.06464
       O    -6.11808    3.97575  -10.12613
      H1    -6.85972    4.37701   -9.68255
       H     0.02819    6.09221  -12.55942
       O    -0.28402    5.64863  -11.75862
      H1    -1.22999    5.52607  -11.82312
       H    -4.50224    6.46143   -5.68062
       O    -3.91116    7.21114   -5.90440
      H1    -3.02276    6.85497   -5.94384
       H     1.42227    2.41562   -4.95122
       O     0.52157    2.74021   -4.86357
      H1     0.29389    2.94100   -5.78486
       H    -4.03192    5.64852   -9.27108
       O    -4.64490    6.27640   -9.70634
      H1    -4.90356    6.86256   -8.96673
       H    -5.04605   -0.03672   -9.44483
       O    -5.19154   -0.72065  -10.12837
      H1    -4.29742   -1.02867  -10.25617
       H    -0.63308    2.82788   -8.28718
       O     0.03001    3.16262   -7.67434
      H1     0.81491    3.21583   -8.20862
       H    -5.16311    2.16098   -9.63693
       O    -5.12240    1.64349   -8.83984
      H1    -5.99821    1.67794   -8.50763
       H    -5.63861    4.92885   -5.10894
       O    -5.59341    5.58133   -4.40120
      H1    -4.67630    5.65778   -4.16800
       H    -2.75025    1.75332   -7.81326
       O    -2.30543    2.03933   -8.61339
      H1    -2.86782    1.83822   -9.35168
       H    -1.65141    2.53714  -11.73814
       O    -1.64301    1.58012  -11.53812
      H1    -2.27633    1.19897  -12.17243
       H     1.50583    4.33315   -9.43727
       O     1.35270    4.04441  -10.36097
      H1     0.99561    4.83679  -10.81972
       H    -2.42382    5.09064   -7.90148
       O    -3.25879    4.66926   -8.06482
      H1    -2.99170    3.78970   -8.27347
       H    -3.70823    4.25297  -13.06504
       O    -2.79797    4.06538  -12.76581
      H1    -2.49149    3.44319  -13.43070
       H    -1.40086    0.04631   -8.72055
       O    -1.23970   -0.76358   -9.22707
      H1    -1.48916   -1.46564   -8.62090

