60
frame 0 | Written by MDAnalysis XYZWriter (release 2.4.3)
       H    -2.66187   14.63656    7.77484
       O    -2.07028   14.64938    6.97150
      H1    -1.16419   14.84301    7.38076
       H    -0.12356   12.05045    8.30511
       O    -0.70556   11.93038    9.10796
      H1     0.04532   11.63632    9.59393
       H    -3.22773   13.74017    5.77063
       O    -3.80678   13.10763    5.32233
      H1    -4.23443   12.65249    6.03019
       H     2.00144   14.45013    5.11220
       O     1.03965   14.41894    5.33187
      H1     0.56463   14.38829    4.48250
       H    -0.02868   12.92812    5.85303
       O    -0.63054   12.19764    6.23050
      H1    -1.35098   12.80634    6.45542
       H     2.83399   12.35863    7.78476
       O     2.01896   11.85877    7.90721
      H1     1.90678   11.59130    6.92761
       H     0.71266   15.80905   11.44895
       O     0.18630   16.59027   11.81697
      H1    -0.52819   16.05996   12.21529
       H    -1.88718   13.05478    9.92378
       O    -2.49700   13.44510   10.58011
      H1    -2.48326   14.37994   10.27042
       H    -2.86971   16.74310    9.18819
       O    -2.50846   16.27889    9.97873
      H1    -1.58685   16.49722    9.87230
       H     5.21194   12.80134    7.71543
       O     4.31967   13.13610    7.77036
      H1     4.14110   13.55730    6.87952
       H     1.73348   13.18648   10.43245
       O     1.73446   14.13152   10.42617
      H1     1.32925   14.37924    9.53692
       H     0.58500   18.51724    9.34282
       O    -0.08091   17.79515    9.39516
      H1     0.06256   17.64050   10.36525
       H     0.29982   16.09631    8.50045
       O     0.42935   15.19024    8.17858
      H1     1.17475   15.35405    7.52003
       H     1.74104   17.28413    5.86783
       O     2.66248   17.29977    6.08824
      H1     2.85194   18.21543    5.73524
       H    -2.35301   11.25207    9.14397
       O    -3.05279   10.62016    9.01248
      H1    -3.73893   11.18398    8.69530
       H     4.46503   14.15944    9.31174
       O     4.22728   14.38372   10.24841
      H1     3.29217   14.36362   10.13733
       H    -2.86276   16.76897    6.56498
       O    -2.33901   17.61695    6.72858
      H1    -2.58072   18.12894    5.96264
       H     3.53459   15.67881    5.45872
       O     3.92102   14.76443    5.43955
      H1     4.54697   14.90344    4.69797
       H    -0.14779   17.10867    4.41383
       O    -0.00848   17.68497    5.14003
      H1    -0.63490   17.31205    5.82049
       H     2.47854   10.25051   10.29713
       O     1.99684   11.08568   10.45924
      H1     2.19362   11.43457    9.59874

