60
frame 2 | Written by MDAnalysis XYZWriter (release 2.4.3)
       H   -11.77432    3.00170  -12.43430
       O   -12.70493    3.00976  -12.17474
      H1   -12.69840    3.34208  -11.25359
       H    -8.69620    5.74778  -10.19903
       O    -8.79131    6.71381  -10.12507
      H1    -9.38907    6.84668   -9.38310
       H    -7.94601    9.32326  -14.34600
       O    -8.67048    8.71651  -14.26338
      H1    -9.38758    9.17897  -14.68587
       H   -12.32230    6.76006  -17.19101
       O   -12.66734    7.62328  -17.38325
      H1   -13.39990    7.69025  -16.78107
       H   -11.85881    8.67786  -16.07730
       O   -11.42482    9.01942  -15.29460
      H1   -11.71683    8.44495  -14.57473
       H    -8.99418    2.21064  -12.19244
       O    -8.51375    1.99959  -11.37702
      H1    -7.74274    1.47483  -11.62788
       H    -9.80268    4.85847  -17.62154
       O   -10.33380    5.52751  -17.17592
      H1    -9.77164    6.28894  -17.04000
       H    -8.86046    2.80467  -19.11196
       O    -8.97776    3.50409  -18.42344
      H1    -8.61244    3.03652  -17.66625
       H    -7.40230    1.64102  -17.06459
       O    -7.66317    2.21781  -16.31990
      H1    -6.99198    2.93604  -16.26875
       H    -7.75974    7.22352  -17.92302
       O    -8.21897    7.18138  -17.05976
      H1    -7.50490    7.02496  -16.44798
       H    -9.48050    5.20321  -15.47789
       O    -8.83173    4.91649  -14.82026
      H1    -9.09534    5.29247  -13.97773
       H   -12.92764    7.33387  -12.49937
       O   -12.21657    7.36079  -13.16004
      H1   -11.50293    6.85859  -12.70824
       H    -5.25832    9.17744  -15.23632
       O    -4.86403    8.61205  -15.91767
      H1    -5.33899    7.79914  -15.74970
       H    -9.62054    6.18500  -11.86016
       O    -9.87066    6.28589  -12.76161
      H1    -9.35524    7.01316  -13.08071
       H    -6.51872    7.14982  -11.80197
       O    -6.46924    6.22189  -12.12684
      H1    -6.24745    5.73125  -11.35326
       H    -6.18338    6.53327  -14.18180
       O    -6.39042    6.40530  -15.09817
      H1    -7.17672    5.82569  -15.05346
       H    -6.07572    3.77244  -13.70935
       O    -5.21931    3.43607  -14.02975
      H1    -5.07487    2.63347  -13.49981
       H   -11.38634    2.38442  -15.06495
       O   -11.55311    2.53001  -16.00251
      H1   -10.74643    2.19551  -16.41932
       H    -5.83594    5.08569  -16.62408
       O    -5.76879    4.14084  -16.52264
      H1    -5.30206    3.99660  -15.71255
       H    -9.60240    3.23445  -14.04396
       O   -10.12126    2.50017  -13.68956
      H1    -9.73414    1.76158  -14.13778

