60
frame 0 | Written by MDAnalysis XYZWriter (release 2.4.3)
       H    -4.64592    6.40275   -8.23908
       O    -4.46209    6.52960   -9.17632
      H1    -5.30534    6.51967   -9.59357
       H    -7.28984    8.65087   -9.26344
       O    -6.43466    8.59360   -8.78958
      H1    -6.53354    7.77657   -8.27262
       H    -3.94794    6.87945  -12.40005
       O    -4.39521    7.67874  -12.63416
      H1    -4.11987    8.26572  -11.91248
       H   -11.18181    6.91755  -10.17136
       O   -11.30149    6.51432  -11.03668
      H1   -10.62996    6.94129  -11.57174
       H    -7.73017   10.52188  -12.70061
       O    -7.69271    9.96646  -13.46529
      H1    -7.85076   10.60520  -14.17813
       H    -5.64704   11.96706   -9.30249
       O    -6.26218   12.30535   -8.62442
      H1    -5.70427   12.95431   -8.15352
       H    -8.40260   11.23493  -11.04096
       O    -7.64186   11.69744  -11.43631
      H1    -7.99567   12.55741  -11.71698
       H    -5.77010   12.42756  -10.91517
       O    -4.81307   12.31364  -10.96577
      H1    -4.67128   11.35622  -10.89666
       H   -10.67583   11.65464  -11.10155
       O   -10.33684   11.08977  -10.43210
      H1   -10.08391   11.63457   -9.67797
       H   -10.10852    4.99090   -7.90351
       O   -10.06025    4.11303   -7.47949
      H1   -10.50240    3.57801   -8.14337
       H    -9.07941    5.39071   -9.95520
       O    -8.07881    5.35734   -9.89616
      H1    -7.91087    5.64988   -8.98570
       H    -6.64160    5.18716   -7.47893
       O    -6.65705    6.15577   -7.34814
      H1    -7.35005    6.27321   -6.66819
       H    -8.62940    8.50686  -12.73448
       O    -9.04421    7.66665  -12.52072
      H1    -8.32145    7.00607  -12.66827
       H    -7.04071    5.54367  -11.37876
       O    -6.65679    5.81650  -12.27158
      H1    -5.89252    6.34323  -12.06048
       H    -9.63927    9.34015  -10.00897
       O    -8.84633    8.81075   -9.96204
      H1    -8.95093    8.07938  -10.57487
       H   -10.48900   10.72510   -6.08218
       O   -10.17208   10.06260   -6.68647
      H1    -9.22463   10.17350   -6.82028
       H    -3.75497    9.96539   -9.93663
       O    -4.49338    9.62226  -10.40415
      H1    -5.03824    9.13736   -9.79199
       H    -5.29201   10.09137   -5.91178
       O    -5.43907    9.14633   -6.12669
      H1    -6.09554    9.20625   -6.82153
       H    -7.14715   11.24669   -7.53734
       O    -7.62975   10.70918   -6.89951
      H1    -7.16176   10.90879   -6.08232
       H   -10.51312    8.38540   -8.02663
       O   -10.70172    7.48893   -8.35635
      H1   -11.63296    7.44434   -8.51540

