60
frame 2 | Written by MDAnalysis XYZWriter (release 2.4.3)
       H    12.91624   -6.48985   -2.03555
       O    12.45981   -6.01373   -2.75869
      H1    13.21915   -5.77544   -3.29630
       H    13.21956   -7.53538    0.15151
       O    12.55272   -6.83375    0.02567
      H1    11.81303   -7.31505   -0.30065
       H    11.28409   -7.10460    4.22105
       O    11.44691   -8.07383    4.35360
      H1    10.59264   -8.46584    4.53979
       H    11.85464   -5.85545    1.44331
       O    11.45411   -5.00732    1.68009
      H1    11.32608   -4.56444    0.80799
       H    11.48132   -4.95294    3.44821
       O    11.62543   -5.26975    4.37840
      H1    11.54039   -4.48866    4.92100
       H    12.81716   -2.22895    4.17177
       O    13.25302   -2.35636    3.30456
      H1    12.56298   -2.17062    2.64821
       H    15.07756   -5.34732    3.67409
       O    14.92071   -4.46341    3.35523
      H1    14.05512   -4.29714    3.74169
       H    14.72970   -1.74495   -0.50848
       O    14.99425   -0.83973   -0.69935
      H1    14.36710   -0.27361   -0.25831
       H     8.04471   -4.78486    2.64564
       O     7.51198   -4.36474    1.93392
      H1     8.12945   -4.30739    1.20183
       H     8.72739   -6.31601    3.45481
       O     8.63213   -5.58219    4.09037
      H1     9.54786   -5.34995    4.29582
       H    10.43501   -9.36532   -0.55980
       O    11.36022   -9.11465   -0.45782
      H1    11.75968   -9.96391   -0.25669
       H    11.73216   -1.90842   -2.86040
       O    11.56111   -1.30675   -3.57504
      H1    12.45071   -1.06215   -3.86201
       H     8.86383   -0.43069   -0.45491
       O     8.62358   -0.87632    0.35483
      H1     8.03277   -0.27420    0.81846
       H     9.78666   -5.67685   -0.00899
       O     9.58215   -6.60677   -0.12914
      H1     8.88495   -6.56115   -0.78745
       H     7.57678   -7.74165    2.03779
       O     8.50072   -7.55772    2.23991
      H1     8.86880   -7.19334    1.44359
       H     8.76069   -3.57828   -0.63185
       O     9.51127   -3.76418   -0.03483
      H1    10.04245   -2.96871    0.09177
       H    10.68126   -4.18127   -3.41109
       O    10.36653   -3.70770   -4.17481
      H1    10.95937   -2.95879   -4.22360
       H    14.26108   -3.66573   -0.25370
       O    13.62321   -3.21663    0.31274
      H1    13.83950   -3.59395    1.16691
       H    11.74928   -1.20313    0.95757
       O    11.15816   -1.78197    1.40876
      H1    10.25053   -1.51667    1.16999
       H    12.03425   -4.45243   -2.07495
       O    11.83254   -3.60731   -1.67331
      H1    12.49395   -3.50809   -0.96366

