60
frame 2 | Written by MDAnalysis XYZWriter (release 2.4.3)
       H    12.97815    4.62671   -6.81435
       O    12.15957    4.73535   -7.21709
      H1    11.53023    4.20127   -6.69507
       H    14.82261   -0.73662   -4.80119
       O    13.92396   -0.37338   -4.66810
      H1    14.00838    0.11406   -3.83956
       H     9.11057    1.40082   -5.20057
       O     8.63325    0.61039   -5.52629
      H1     7.86989    0.60647   -4.93592
       H    10.64572    2.68672   -4.82999
       O    10.34667    2.94867   -5.71310
      H1    10.41815    2.17101   -6.25464
       H     8.07047    1.75430   -8.07775
       O     7.62650    2.53082   -7.66246
      H1     8.34353    3.14471   -7.46228
       H    10.94984    2.83727   -2.92639
       O    11.21148    1.97534   -3.30373
      H1    10.74045    1.37777   -2.72955
       H    12.12934    1.36243   -7.15504
       O    11.38101    0.80544   -7.35319
      H1    11.53844    0.00851   -6.81105
       H     7.91404   -2.04319   -7.10853
       O     6.96413   -2.18590   -7.07609
      H1     6.86616   -3.13713   -7.12938
       H     8.46274   -0.37346   -3.56139
       O     8.96646   -0.54436   -2.77854
      H1     9.87953   -0.66720   -3.10566
       H     9.40314   -0.75801   -6.38343
       O     9.65692   -1.37392   -7.07155
      H1     9.49352   -0.91789   -7.90766
       H    11.73216   -1.90842   -2.86040
       O    11.56111   -1.30675   -3.57504
      H1    12.45071   -1.06215   -3.86201
       H    11.79065   -2.46076   -6.65094
       O    12.64051   -2.24335   -7.10748
      H1    12.85809   -3.11142   -7.48066
       H    11.97024   -1.69724  -11.14106
       O    12.62936   -1.01200  -11.34616
      H1    12.96409   -0.70299  -10.46441
       H    14.29347   -2.43453   -5.72010
       O    15.15127   -2.68413   -5.36629
      H1    15.78797   -2.43048   -6.04497
       H    12.66018    3.34942   -9.96060
       O    12.14457    2.94469   -9.23795
      H1    12.12828    3.62480   -8.57554
       H    13.11291    0.64204   -8.81326
       O    13.65954   -0.14275   -8.85284
      H1    13.36041   -0.67458   -8.11734
       H    10.53153   -2.90880   -8.02808
       O    10.59051   -3.73817   -8.55406
      H1    10.78045   -4.42487   -7.87891
       H    10.68126   -4.18127   -3.41109
       O    10.36653   -3.70770   -4.17481
      H1    10.95937   -2.95879   -4.22360
       H     8.02903    0.15933   -9.46720
       O     8.91328    0.23221   -9.09199
      H1     9.43459    0.16878   -9.90464
       H    13.82058    2.82455   -5.69989
       O    13.68146    2.11024   -6.30524
      H1    14.13743    1.34608   -5.88925

