60
frame 2 | Written by MDAnalysis XYZWriter (release 2.4.3)
       H   -10.19511   11.89196   13.13115
       O    -9.31362   12.24196   12.88662
      H1    -8.79284   12.24523   13.71396
       H   -15.25662   17.92362   13.38255
       O   -14.68044   17.26241   13.01503
      H1   -14.56520   16.66727   13.77069
       H   -11.34326    9.68930   17.80046
       O   -10.58420    9.63012   17.23059
      H1   -10.39158   10.53253   16.93484
       H   -13.41568    8.90337   18.95815
       O   -13.20357    9.64784   18.37469
      H1   -12.97030   10.36980   18.96974
       H    -8.88947   12.78679   17.60112
       O    -8.45209   13.32324   18.28572
      H1    -9.02802   13.18131   19.04951
       H   -18.17655   13.98241   16.82790
       O   -18.20464   13.21962   16.23978
      H1   -18.51257   12.49315   16.73721
       H   -12.10465   11.07882   12.95435
       O   -12.31576   11.58484   13.73870
      H1   -12.79177   10.89034   14.25421
       H   -16.09720   12.35256   14.44856
       O   -16.53720   12.31366   13.60120
      H1   -15.86377   12.65185   13.03083
       H   -15.94776   13.25973   16.35525
       O   -15.22767   12.70793   15.99106
      H1   -15.45679   11.85333   16.37219
       H   -10.24309    8.64759   15.52371
       O   -10.31222    8.15638   14.70009
      H1   -11.24415    8.23318   14.51370
       H   -13.72157   12.82194   17.17570
       O   -12.95317   13.21584   17.58553
      H1   -13.27631   13.72171   18.32275
       H   -13.85808   12.71248   12.88225
       O   -14.37619   13.49696   12.71597
      H1   -13.98497   13.82632   11.91070
       H   -12.68886    9.04388   16.04808
       O   -13.42691    9.09912   15.40916
      H1   -13.97778    8.41086   15.77511
       H    -9.32466   14.60250   17.51054
       O    -9.47233   15.50662   17.27355
      H1    -9.94607   15.41491   16.46124
       H   -14.58761   15.33804   15.74996
       O   -14.08401   15.69641   15.02787
      H1   -13.91164   14.94606   14.45035
       H   -11.98349   17.28508   18.54067
       O   -11.37314   16.56153   18.78505
      H1   -10.96344   16.30703   17.95174
       H    -9.25717   12.25850   15.72210
       O   -10.11203   12.13033   16.17100
      H1   -10.76087   12.51625   15.57045
       H   -12.06656   13.93695   16.46220
       O   -11.71815   14.65711   15.93934
      H1   -12.45894   15.09451   15.52047
       H   -15.94197    9.27721   17.10674
       O   -15.82055   10.16666   17.49915
      H1   -15.01132   10.08814   17.99744
       H   -16.92721   16.18520   17.02639
       O   -16.44385   15.40593   16.73385
      H1   -16.40902   14.92173   17.58001

