60
frame 2 | Written by MDAnalysis XYZWriter (release 2.4.3)
       H     2.72358   17.18044   -4.52156
       O     3.26908   17.05789   -3.72405
      H1     4.09957   16.75005   -4.07429
       H     1.08160   18.78985   -2.16796
       O     0.47420   18.22527   -2.63029
      H1    -0.38089   18.34720   -2.20515
       H     2.86953   14.94530   -9.54513
       O     2.77355   14.59536   -8.63736
      H1     3.56984   14.02038   -8.60874
       H    -0.21225   17.21476   -8.24302
       O     0.02899   17.80563   -7.50988
      H1    -0.70724   18.41379   -7.38108
       H     0.53686   17.31280   -4.42499
       O     0.97906   16.91205   -5.19516
      H1     0.48969   17.22641   -5.96425
       H     1.84821   14.21959   -7.21232
       O     1.46570   14.19786   -6.31790
      H1     1.78700   14.98832   -5.90971
       H     3.39870   16.67756   -7.98450
       O     3.97788   17.40623   -7.76243
      H1     3.38263   18.15796   -7.82545
       H     2.07913   16.23207  -12.07819
       O     2.24740   16.27001  -11.12789
      H1     2.90165   16.98990  -11.01959
       H     0.57160   14.56631   -3.86909
       O     1.19449   14.57202   -3.14733
      H1     1.62753   15.43660   -3.20434
       H     0.29401   16.52677  -10.49633
       O    -0.36847   16.34375   -9.81439
      H1    -0.68364   15.44805  -10.02230
       H    -5.76036   15.29416   -6.54829
       O    -5.24622   15.81424   -7.19224
      H1    -4.66622   15.14676   -7.54701
       H     4.43418   18.11943  -10.35381
       O     3.83581   18.49518  -10.99624
      H1     3.51920   19.28267  -10.53609
       H    -3.37036   14.59507  -10.43995
       O    -3.78272   14.69846   -9.58418
      H1    -4.26219   13.84833   -9.45252
       H    -3.23571   18.57529   -3.67055
       O    -3.92882   17.91909   -3.70965
      H1    -3.74073   17.43090   -4.49891
       H    -1.47806   14.18223   -5.52153
       O    -1.53821   14.64542   -4.66217
      H1    -1.66433   15.54489   -4.96853
       H    -2.99669   17.98933   -9.82794
       O    -2.11906   18.36505  -10.06864
      H1    -1.45327   17.66889  -10.04337
       H    -0.44691   17.15072  -12.63236
       O    -0.73881   16.27438  -12.87488
      H1     0.00084   15.94473  -13.41598
       H    -3.63329   16.42815   -6.52134
       O    -2.77640   16.72415   -6.25993
      H1    -2.65623   17.55687   -6.74533
       H    -4.41782   16.55328   -9.60017
       O    -4.71700   17.42365   -9.91862
      H1    -4.78047   17.19974  -10.85416
       H    -1.72438   15.10527   -7.02238
       O    -1.29311   14.23976   -7.14685
      H1    -0.39917   14.43360   -6.97975

