60
frame 2 | Written by MDAnalysis XYZWriter (release 2.4.3)
       H   -11.86131   11.20498    9.90744
       O   -11.96510   11.88747    9.25720
      H1   -12.36520   11.43630    8.52552
       H   -12.34475    9.51844    6.28282
       O   -12.13493    9.84459    7.15981
      H1   -11.63979    9.09227    7.55852
       H   -10.55597   10.14344    5.27221
       O    -9.90447   10.84324    5.33562
      H1   -10.26933   11.40910    6.07987
       H    -9.39433   15.80982    9.26151
       O   -10.21140   15.28384    9.19254
      H1   -10.32094   14.93807   10.05722
       H   -10.81475   17.51099    8.21789
       O   -11.53001   17.83638    7.66701
      H1   -11.49972   18.78764    7.73871
       H    -9.57915   11.59020    8.65010
       O    -8.60303   11.62993    8.46914
      H1    -8.37286   10.76630    8.13826
       H   -13.28769   14.77033    7.58168
       O   -12.43915   14.34328    7.39549
      H1   -11.96239   14.57448    8.21636
       H   -10.86102   16.38528    3.41276
       O   -11.39293   15.89882    4.10100
      H1   -12.05829   16.54089    4.40140
       H   -10.33953   16.97198    5.08743
       O    -9.65981   17.53979    5.46992
      H1    -9.97160   17.81928    6.36148
       H    -8.48686    9.90533    6.22713
       O    -7.96405    9.54979    6.96594
      H1    -7.09398    9.50229    6.55741
       H   -13.26057   14.66344   10.15418
       O   -12.77999   14.03929   10.71645
      H1   -12.28796   13.48545   10.07884
       H    -6.06692   12.84715    7.06386
       O    -6.76606   13.41152    7.44481
      H1    -7.49598   12.83537    7.72128
       H    -8.27194   14.90241    6.44556
       O    -7.89682   15.70217    6.04468
      H1    -8.67736   16.21650    5.77842
       H   -10.01591   13.27613    7.21234
       O   -10.00327   13.49903    6.26543
      H1   -10.76183   14.07292    6.25207
       H    -8.20578   11.78086    4.69010
       O    -8.07597   12.27792    3.87660
      H1    -8.73573   13.00751    3.89416
       H   -12.62188   16.98876    6.70454
       O   -13.19815   16.56856    6.01308
      H1   -13.12489   15.61514    6.20234
       H   -10.94543   12.54955    4.19289
       O   -11.73493   12.85219    3.72740
      H1   -11.57931   13.79202    3.65524
       H    -7.95027   15.01854    3.68253
       O    -8.60685   14.75653    3.02182
      H1    -8.09374   14.67171    2.23374
       H    -6.77591   13.63851    9.39107
       O    -6.82517   13.65166   10.36124
      H1    -6.97590   12.72091   10.61697
       H   -13.46846   10.89723    4.83861
       O   -13.63361   11.75207    5.28683
      H1   -13.14986   12.38439    4.74128

