60
frame 0 | Written by MDAnalysis XYZWriter (release 2.4.3)
       H   -16.89919  -12.53925  -18.16362
       O   -16.01470  -12.71372  -17.84249
      H1   -15.94475  -13.66483  -17.74492
       H    -8.79862  -12.20239  -17.00229
       O    -8.61669  -13.15192  -16.92973
      H1    -9.49694  -13.51210  -16.66109
       H    -9.97704  -15.23147  -17.02179
       O   -10.64812  -14.95021  -16.39721
      H1   -10.43849  -15.39846  -15.57871
       H   -12.25692  -14.35007  -16.61905
       O   -12.99549  -13.83167  -16.98598
      H1   -13.75410  -14.32165  -16.67024
       H   -10.49764  -18.31223  -19.05174
       O   -10.51429  -17.96257  -18.17083
      H1    -9.60158  -17.68258  -17.99298
       H    -7.97341  -15.83188  -18.21091
       O    -8.60365  -16.17339  -17.56662
      H1    -8.07076  -16.66053  -16.93405
       H   -10.19832  -15.29140  -11.26140
       O   -10.03885  -14.91688  -12.12992
      H1    -9.10625  -15.07991  -12.32812
       H   -11.06453  -10.65883  -17.03563
       O   -10.20106  -10.42002  -17.42727
      H1   -10.20103  -10.71461  -18.33936
       H   -12.04099  -16.68082  -16.75892
       O   -13.00355  -16.82477  -16.74347
      H1   -13.22420  -16.78201  -15.80188
       H   -10.54315  -15.77146  -13.49656
       O   -10.82298  -16.38795  -14.17586
      H1   -10.51132  -17.24738  -13.76484
       H   -16.10067  -15.88776  -16.73645
       O   -15.35494  -15.38716  -17.11614
      H1   -14.57685  -15.96513  -17.11194
       H    -8.35091  -13.80140  -13.76707
       O    -7.80554  -14.58501  -13.80336
      H1    -7.52790  -14.56848  -14.73561
       H   -13.11143  -16.91321  -12.46941
       O   -12.75032  -17.44126  -11.74536
      H1   -13.13584  -18.31070  -11.86579
       H   -16.42568  -11.26609  -14.63031
       O   -16.01049  -12.00575  -15.12991
      H1   -15.54575  -11.63990  -15.90558
       H   -12.15100  -12.61244  -12.22991
       O   -11.85698  -12.12078  -12.97992
      H1   -12.16794  -11.20728  -12.79207
       H   -14.88519  -13.21756  -14.04062
       O   -14.18342  -13.78337  -13.74402
      H1   -13.44148  -13.19218  -13.61527
       H   -13.67001  -15.55058  -14.03608
       O   -13.47598  -16.46432  -14.07442
      H1   -12.54862  -16.49070  -13.84159
       H   -12.51111  -10.65783  -15.76843
       O   -12.86878  -10.89966  -16.62912
      H1   -13.12308  -11.81634  -16.55144
       H   -14.58727  -10.10665  -16.70811
       O   -15.34488  -10.09824  -17.30904
      H1   -15.32175  -10.96326  -17.68359
       H    -9.29132  -11.41591  -13.29912
       O    -9.37016  -11.87219  -14.13238
      H1   -10.31753  -11.78922  -14.35936

