60
frame 2 | Written by MDAnalysis XYZWriter (release 2.4.3)
       H    12.89182    4.68276    1.69467
       O    12.36206    4.20127    2.36441
      H1    13.05438    4.08361    3.06314
       H    13.86061   10.29966   -3.40971
       O    14.22820   10.81604   -2.66859
      H1    14.99274   11.25159   -3.03941
       H    12.58052    6.97060   -0.01279
       O    13.47921    6.73544   -0.30966
      H1    13.47142    5.76241   -0.37043
       H    15.36467    8.77447   -4.28262
       O    16.30030    8.64158   -4.41595
      H1    16.34263    7.84385   -4.96181
       H    14.09592    5.16569   -4.48542
       O    14.27652    4.73462   -5.34905
      H1    15.10015    5.19772   -5.59974
       H    15.15249    4.28657   -2.63760
       O    15.33750    3.42163   -2.17822
      H1    15.53700    2.83845   -2.92823
       H    12.79886    1.53264   -2.54817
       O    13.61890    1.07875   -2.24725
      H1    14.14337    1.77615   -1.84230
       H    10.94984    2.83727   -2.92639
       O    11.21148    1.97534   -3.30373
      H1    10.74045    1.37777   -2.72955
       H    17.24527    7.64733   -2.20646
       O    16.72093    7.01149   -1.70046
      H1    17.35990    6.32297   -1.46711
       H    14.92898    6.22164    0.91659
       O    15.41610    5.63220    1.52098
      H1    15.72164    4.90839    0.96571
       H    11.09637    6.36298   -4.74428
       O    11.73302    6.57915   -4.05512
      H1    11.18443    7.18234   -3.50732
       H    16.97505    4.10089   -1.62270
       O    17.85376    4.22055   -2.00502
      H1    18.39660    4.59658   -1.26566
       H    13.72431    6.43718   -2.37130
       O    14.46632    5.97442   -2.78385
      H1    15.27313    6.43290   -2.51658
       H    12.64595    9.21528   -4.76364
       O    13.37202    8.67657   -4.38726
      H1    13.01720    7.80041   -4.26341
       H    11.16997    5.40679    1.67426
       O    10.93540    6.15354    1.07547
      H1    10.99895    6.93639    1.65284
       H     8.58380    6.14343   -0.96805
       O     9.20635    5.40498   -0.83638
      H1     9.73816    5.67103   -0.09500
       H    14.06083    3.87678   -1.02836
       O    13.30909    4.17441   -0.51557
      H1    12.61047    4.28437   -1.20397
       H    10.50417    4.95637   -1.96903
       O    11.20017    4.54576   -2.48246
      H1    11.55957    5.23979   -3.05085
       H    15.34871    7.83641   -0.03058
       O    15.41509    8.58147    0.58481
      H1    14.49616    8.82337    0.77738
       H    10.64650    9.12034   -2.16051
       O    10.18010    8.30958   -2.40561
      H1     9.90247    7.97142   -1.54790

