60
frame 2 | Written by MDAnalysis XYZWriter (release 2.4.3)
       H   -15.92634  -15.58830    8.13520
       O   -15.75652  -14.80296    8.65460
      H1   -16.63758  -14.41593    8.77754
       H   -13.46374  -17.43677    7.64748
       O   -12.72296  -17.32617    7.05699
      H1   -13.17390  -16.78467    6.39804
       H   -11.09243  -17.51737   11.77124
       O   -10.53995  -18.29324   11.51586
      H1    -9.70746  -18.14405   11.98166
       H   -16.05614  -11.93534   15.46847
       O   -16.26862  -12.85595   15.62312
      H1   -16.57424  -13.12216   14.73234
       H   -14.15150  -13.77862   16.52816
       O   -14.19419  -14.70400   16.21721
      H1   -14.99663  -14.68214   15.67196
       H   -15.98754  -16.55772   13.12641
       O   -15.60716  -16.17736   13.93873
      H1   -14.71318  -15.94856   13.67546
       H   -17.38053  -12.59080   11.85999
       O   -17.66526  -11.89250   11.22423
      H1   -16.84049  -11.76882   10.66738
       H   -18.28796  -13.26427   10.16024
       O   -18.39928  -14.00166    9.53758
      H1   -18.93853  -14.63843   10.06296
       H   -11.54994  -16.82119   15.88509
       O   -11.48733  -15.87300   15.72928
      H1   -11.94348  -15.78038   14.89130
       H   -16.92545  -18.72824   15.59668
       O   -16.05195  -18.53780   15.19451
      H1   -16.12884  -17.67036   14.80415
       H   -14.26498  -14.94820   10.91126
       O   -14.11976  -14.24346   11.56115
      H1   -13.24377  -13.93223   11.31829
       H   -12.97217  -16.62617   10.56302
       O   -13.61295  -17.32185   10.81656
      H1   -13.05573  -18.00008   11.22328
       H   -13.33004  -17.94888   14.93190
       O   -13.15492  -17.73299   13.99254
      H1   -12.99365  -18.60524   13.63987
       H   -16.12142  -14.32094   13.00001
       O   -17.00350  -13.97309   13.04539
      H1   -17.47321  -14.59859   13.57988
       H   -11.79534  -14.92250    9.59806
       O   -11.52024  -15.67918   10.11256
      H1   -11.17929  -15.31248   10.94018
       H   -17.67760  -18.04986   12.79770
       O   -17.03729  -17.65401   12.21426
      H1   -16.45556  -18.42397   12.00110
       H   -18.08599  -16.67780    9.08184
       O   -17.64655  -16.82481    8.21293
      H1   -16.71114  -17.06681    8.45623
       H   -14.82300  -17.74592    9.32515
       O   -15.02164  -17.59975    8.41198
      H1   -15.15143  -18.46582    8.08121
       H   -15.61362  -17.60008   18.15363
       O   -16.24855  -17.46568   18.87199
      H1   -16.90539  -18.18686   18.73196
       H   -14.73016  -17.74488   16.15662
       O   -14.17466  -17.45183   16.84907
      H1   -13.99970  -16.52987   16.56809

