60
frame 2 | Written by MDAnalysis XYZWriter (release 2.4.3)
       H     9.48019   18.22979   19.12599
       O     9.12123   17.69316   18.39633
      H1     8.17159   17.74788   18.54447
       H     9.64272   10.86292   18.61579
       O    10.48960   11.35783   18.57182
      H1    11.11593   10.60773   18.53857
       H     8.22456   18.35867   15.63815
       O     7.81129   18.19711   14.76234
      H1     7.26181   17.44965   14.99073
       H     2.93070   13.56439   13.86542
       O     3.31888   14.35436   14.25928
      H1     3.08616   14.24996   15.18056
       H     3.02267   17.00691   17.73391
       O     3.57542   17.44454   17.06601
      H1     2.96165   18.05093   16.63195
       H     3.17018   14.10462   17.72973
       O     3.67530   13.55021   17.17025
      H1     4.60918   13.71263   17.39523
       H     8.14629    9.15000   18.59560
       O     8.00079   10.02909   18.23217
      H1     8.23374    9.98060   17.31184
       H     1.53022   16.04204   19.36465
       O     2.18337   15.63316   18.73988
      H1     1.61512   15.33805   17.98211
       H     9.24892   15.16717   16.31325
       O     9.48960   15.14727   17.27415
      H1     9.70180   16.07396   17.46697
       H     6.21884   18.96298   18.43983
       O     6.34692   18.01278   18.57221
      H1     5.58176   17.66720   18.08517
       H     4.38712   11.74840   14.63743
       O     5.31149   11.65592   14.86524
      H1     5.78513   11.85885   14.06053
       H     5.91702   12.98416   15.98180
       O     6.31481   13.80814   16.21626
      H1     5.59786   14.41433   15.99791
       H     6.33580   10.26551   17.65187
       O     5.52849    9.97210   17.22189
      H1     5.40795   10.59221   16.49977
       H     6.26571   14.50926   13.33495
       O     5.60645   14.76425   12.65777
      H1     4.85758   14.23529   12.85957
       H     3.18502   11.76937   17.21455
       O     2.94317   10.87666   17.49041
      H1     3.72018   10.32948   17.44761
       H     6.17480   14.49992   18.19434
       O     5.86287   14.14092   19.01817
      H1     5.98616   14.94070   19.55355
       H     0.78095   15.97108   16.11442
       O     1.23554   15.12050   16.25959
      H1     0.53458   14.46578   16.44973
       H    10.94124   14.08112   17.15932
       O    11.42049   13.29489   16.98618
      H1    11.05932   12.67081   17.60874
       H     4.77530   16.65447   16.00297
       O     5.33257   16.24002   15.34993
      H1     4.65804   16.08371   14.64586
       H     8.44510   14.25016   14.14144
       O     7.84941   15.01270   14.23280
      H1     7.40967   14.89053   15.08231

