60
frame 0 | Written by MDAnalysis XYZWriter (release 2.4.3)
       H   -13.96865   -6.41864   10.19317
       O   -14.22530   -5.56264    9.82825
      H1   -14.45929   -5.78920    8.90716
       H   -16.68782   -2.68927    4.03946
       O   -17.36540   -2.29099    3.49941
      H1   -17.14341   -2.58849    2.61450
       H   -16.93963   -1.63919    9.37348
       O   -16.58645   -2.43487    9.76689
      H1   -17.33591   -2.90738   10.09474
       H   -15.08304   -3.55663    7.08565
       O   -15.26947   -2.71721    6.65148
      H1   -14.38488   -2.38672    6.35683
       H   -15.83997    0.48608    6.75127
       O   -15.77822    1.42577    6.51093
      H1   -14.81218    1.50770    6.56071
       H   -11.67155    1.72237    5.01898
       O   -12.09953    1.11464    4.40358
      H1   -12.39901    0.41556    4.97326
       H   -14.90022    0.68383    2.92841
       O   -14.18309    0.12509    2.60389
      H1   -13.38072    0.62996    2.79429
       H   -17.83534    1.12121   10.58047
       O   -17.83914    0.25730   11.00253
      H1   -16.88746    0.08683   11.15197
       H   -11.54298   -5.13689    6.60418
       O   -11.49775   -4.20291    6.82430
      H1   -11.97761   -4.10546    7.65222
       H   -17.66535   -0.82968    6.34793
       O   -17.02140   -0.74067    7.04588
      H1   -16.49076   -1.57699    6.92337
       H   -12.73074    2.15672    7.17862
       O   -12.80440    1.21043    7.35790
      H1   -12.78082    1.21754    8.31425
       H   -12.03669   -4.05548    9.82375
       O   -12.58681   -3.43615    9.34043
      H1   -13.47233   -3.82210    9.35385
       H   -14.77560   -0.78227   11.73608
       O   -15.63427   -1.12737   12.01931
      H1   -15.89534   -1.70860   11.27291
       H   -18.32449   -3.83371   12.11698
       O   -18.51165   -3.95038   11.16816
      H1   -19.41109   -3.69944   11.10404
       H   -15.17276   -0.04806    8.70020
       O   -15.54376    0.56431    9.35208
      H1   -16.04962    1.18047    8.81356
       H   -17.73351   -5.95041   10.10886
       O   -18.06271   -6.08814    9.19557
      H1   -18.55653   -5.24187    9.06576
       H   -13.02905   -1.35196    4.68440
       O   -13.65782   -0.93688    5.27997
      H1   -14.19325   -0.37870    4.71800
       H   -16.17046    1.64953    4.69972
       O   -16.24343    1.46753    3.75159
      H1   -17.14838    1.16089    3.71269
       H   -16.48923   -5.10491    4.33633
       O   -15.91344   -4.33144    4.46372
      H1   -15.86340   -4.27435    5.42552
       H   -15.50871   -6.37355    7.25712
       O   -15.46804   -5.41821    7.42198
      H1   -16.34446   -5.22317    7.76091

