60
frame 2 | Written by MDAnalysis XYZWriter (release 2.4.3)
       H     2.15433    5.33652   -6.18171
       O     2.00029    5.23760   -7.09478
      H1     2.36435    6.06033   -7.46248
       H    -0.08477    5.39024   -7.49114
       O    -0.79040    5.99786   -7.75339
      H1    -0.45852    6.46608   -8.51908
       H    -3.09890    1.78570   -5.63676
       O    -3.74078    1.46402   -6.34001
      H1    -4.42029    2.14260   -6.46892
       H     2.11403    6.84871   -4.42903
       O     3.01943    6.71174   -4.74078
      H1     3.32670    6.07378   -4.06383
       H    -3.53141    3.03994   -3.42755
       O    -2.73984    3.32355   -3.88790
      H1    -2.04787    3.26999   -3.20502
       H    -0.97403    1.58058   -4.39563
       O    -1.37281    0.73058   -4.68391
      H1    -0.62508    0.15087   -4.99227
       H     0.36858   -2.07403   -4.61906
       O     0.17179   -1.80039   -5.48609
      H1     1.02090   -1.60549   -5.86397
       H     1.42227    2.41562   -4.95122
       O     0.52157    2.74021   -4.86357
      H1     0.29389    2.94100   -5.78486
       H     3.49999    2.15330   -8.02068
       O     3.19826    2.81441   -8.66200
      H1     3.07489    2.29621   -9.44499
       H    -1.48117   -0.67333   -3.57505
       O    -1.24805   -1.48120   -3.09394
      H1    -2.11184   -1.94054   -3.06869
       H     0.69348    4.88887   -2.25915
       O     1.16226    4.87533   -3.09005
      H1     0.68975    4.23974   -3.62778
       H    -0.63308    2.82788   -8.28718
       O     0.03001    3.16262   -7.67434
      H1     0.81491    3.21583   -8.20862
       H     2.23431   -0.98468   -7.87404
       O     2.50346   -0.88694   -6.94562
      H1     2.28165    0.02751   -6.73587
       H    -2.75025    1.75332   -7.81326
       O    -2.30543    2.03933   -8.61339
      H1    -2.86782    1.83822   -9.35168
       H     1.50583    4.33315   -9.43727
       O     1.35270    4.04441  -10.36097
      H1     0.99561    4.83679  -10.81972
       H    -2.42382    5.09064   -7.90148
       O    -3.25879    4.66926   -8.06482
      H1    -2.99170    3.78970   -8.27347
       H     0.22462    6.73723   -5.13999
       O     0.36539    7.69883   -5.14304
      H1     0.37643    7.89080   -4.19379
       H    -3.48736    5.77260   -2.39668
       O    -2.99684    5.95422   -3.20843
      H1    -2.98407    5.07881   -3.62094
       H    -1.40086    0.04631   -8.72055
       O    -1.23970   -0.76358   -9.22707
      H1    -1.48916   -1.46564   -8.62090
       H     2.71800    0.51038   -4.01975
       O     2.91194    1.43705   -4.28069
      H1     3.75112    1.39873   -4.81911

