60
frame 2 | Written by MDAnalysis XYZWriter (release 2.4.3)
       H     0.39812  -12.59631  -16.18585
       O     0.48115  -13.54701  -15.98598
      H1     1.26485  -13.79483  -16.50977
       H    -0.37329  -15.17880  -16.35387
       O    -0.80290  -15.98005  -16.68560
      H1    -1.02254  -16.45481  -15.88185
       H    -0.25869  -16.85826  -10.41108
       O    -0.60148  -17.38872  -11.14498
      H1    -1.25473  -17.96094  -10.71940
       H     0.20632  -14.54421  -14.00694
       O     0.27736  -15.25225  -13.36687
      H1    -0.36004  -15.90374  -13.66736
       H     1.58919  -16.11574  -17.93430
       O     1.94923  -15.29327  -18.30434
      H1     1.18426  -14.88202  -18.73658
       H     3.60899  -15.51933  -17.79390
       O     4.44052  -15.97822  -17.58830
      H1     5.01977  -15.24996  -17.38528
       H     1.72401  -18.26884  -15.68139
       O     2.25832  -18.28559  -14.87274
      H1     2.92712  -18.95438  -15.03413
       H    -4.63504  -15.64147  -15.51188
       O    -3.81785  -16.08814  -15.81311
      H1    -3.17510  -15.38084  -15.89517
       H    -2.04429  -14.08815  -10.07645
       O    -2.22027  -14.36552  -10.97962
      H1    -1.76124  -15.20322  -11.02098
       H     2.15295  -18.19198  -17.89894
       O     1.40114  -17.85573  -17.41191
      H1     0.71810  -17.82804  -18.12470
       H     2.13218  -15.52470  -13.83689
       O     3.01208  -15.89013  -13.73218
      H1     2.86215  -16.77510  -14.07474
       H     0.40808  -18.36158  -12.19141
       O     0.52824  -19.18848  -12.69004
      H1     0.94254  -18.87279  -13.52572
       H    -2.51847  -12.14494  -14.85567
       O    -2.84684  -13.00596  -15.04571
      H1    -3.10718  -13.28183  -14.16927
       H     0.98800  -14.91092  -11.51688
       O     1.76406  -14.69510  -10.98110
      H1     2.49267  -14.81594  -11.63162
       H    -2.82904  -14.47873  -19.19728
       O    -2.22309  -14.24833  -18.46935
      H1    -2.04368  -15.09121  -18.03231
       H    -3.15747  -17.89042  -12.94237
       O    -4.10982  -17.94091  -12.85625
      H1    -4.25379  -18.76623  -12.38758
       H    -3.41244  -19.05752  -17.39306
       O    -4.18408  -18.94194  -16.83749
      H1    -4.02600  -18.09787  -16.41912
       H    -3.24001  -11.37496  -18.77397
       O    -2.69898  -11.41277  -18.01252
      H1    -2.43207  -12.33459  -18.00369
       H    -2.43918  -17.25687  -14.92199
       O    -1.61321  -17.25331  -14.43536
      H1    -1.21754  -18.10784  -14.64260
       H    -4.56718  -13.14945  -17.69254
       O    -5.33551  -12.69440  -17.32635
      H1    -5.07635  -12.55031  -16.38130

