60
frame 2 | Written by MDAnalysis XYZWriter (release 2.4.3)
       H    -4.93295   -1.71594  -17.49081
       O    -5.65270   -2.13555  -16.97743
      H1    -5.36003   -3.04902  -16.93809
       H    -7.86263   -5.81267  -16.83911
       O    -8.21191   -6.69453  -16.71063
      H1    -9.15136   -6.50272  -16.79032
       H    -3.68038    1.48648  -14.96689
       O    -3.65260    1.57253  -15.92205
      H1    -2.84701    2.03517  -16.10004
       H    -4.76137    1.39653  -17.28550
       O    -5.25709    1.67261  -18.08727
      H1    -5.52865    2.56499  -17.87035
       H    -3.58752   -2.29896  -15.35192
       O    -3.32974   -1.55351  -14.79035
      H1    -2.74793   -2.06620  -14.19623
       H    -6.14399    0.11297  -12.93495
       O    -6.10872    0.76562  -12.23743
      H1    -5.88758    0.21131  -11.47751
       H    -1.92806    1.72585  -18.53834
       O    -1.53096    1.48820  -17.70626
      H1    -0.61356    1.37636  -17.92393
       H    -7.40230    1.64102  -17.06459
       O    -7.66317    2.21781  -16.31990
      H1    -6.99198    2.93604  -16.26875
       H    -3.30783   -1.43261  -19.05963
       O    -3.45908   -1.62066  -18.12831
      H1    -2.61027   -1.47684  -17.66743
       H    -5.96587   -0.71560  -15.37821
       O    -6.62119   -0.21032  -14.90690
      H1    -6.49546    0.70460  -15.25065
       H    -9.76983   -0.60410  -17.35079
       O    -9.33037    0.20392  -17.61707
      H1    -8.67216   -0.08820  -18.23825
       H    -4.59107    1.01915  -12.88382
       O    -3.70441    0.89650  -13.25424
      H1    -3.70436    0.04204  -13.67146
       H    -3.17346   -5.11752  -13.60693
       O    -3.84556   -4.61693  -13.09852
      H1    -4.65519   -4.78073  -13.58428
       H    -7.49265   -3.57750  -18.56146
       O    -8.03220   -2.87552  -18.15755
      H1    -7.38201   -2.36120  -17.64129
       H    -9.16269   -0.60875  -14.25226
       O    -9.68613   -0.13023  -14.89329
      H1    -9.17783   -0.22002  -15.71174
       H    -3.45940   -6.99727  -16.18740
       O    -3.38539   -6.17163  -16.69176
      H1    -2.67145   -5.69439  -16.19961
       H    -6.87887   -3.31525  -13.13896
       O    -6.89347   -4.21211  -13.48035
      H1    -6.58662   -4.18582  -14.41852
       H    -1.80001   -1.28750  -15.82855
       O    -1.12360   -0.96545  -16.41813
      H1    -1.51475   -0.20908  -16.90796
       H    -1.25690   -3.33163  -19.34289
       O    -1.99058   -3.93752  -19.25202
      H1    -2.14200   -3.85221  -18.31853
       H    -5.96000   -4.89925  -17.20699
       O    -5.87413   -4.86635  -16.26241
      H1    -5.13776   -5.49074  -16.08045

