60
frame 2 | Written by MDAnalysis XYZWriter (release 2.4.3)
       H    10.88715    9.47287    4.34870
       O    10.75121   10.36616    4.72219
      H1    10.05893   10.23741    5.38368
       H    13.39828   18.00798    3.02022
       O    12.47401   18.21684    3.21617
      H1    12.35965   18.15206    4.18526
       H    10.81132   17.16455    7.62750
       O    10.32089   16.35918    7.38196
      H1    10.92294   15.87554    6.80054
       H    14.99991   16.06738    7.86554
       O    15.32062   15.57174    8.63194
      H1    14.65389   15.77563    9.28169
       H     8.85274   11.72081    2.67507
       O     9.80503   11.88395    2.72449
      H1    10.13350   11.27354    3.36865
       H    14.96712   17.17443    2.75079
       O    15.34672   17.68441    3.48150
      H1    15.13485   17.16599    4.27000
       H    14.13738   12.22890    4.60082
       O    13.63644   11.91491    3.82027
      H1    13.21455   11.08317    4.12830
       H    14.81135   17.49104    6.46485
       O    14.39288   16.65324    6.22478
      H1    13.43668   16.85585    6.26625
       H     6.96754   16.01617    7.98257
       O     7.39492   15.71372    7.16670
      H1     8.32792   15.74774    7.41589
       H    11.45316   14.25873    5.12814
       O    11.73761   14.45020    6.01966
      H1    12.28182   13.71609    6.26292
       H     9.51762   15.13589    1.54351
       O     9.81203   15.46423    0.69888
      H1    10.77220   15.31939    0.77310
       H    11.66505   18.64270    6.34361
       O    11.96369   17.91156    5.77989
      H1    11.25066   17.27185    5.90910
       H    10.64548   13.40841    3.10622
       O    11.46339   13.93632    3.27605
      H1    12.20272   13.31926    3.14917
       H    13.16590   11.42049    6.94382
       O    13.42905   12.30514    6.62772
      H1    14.27331   12.47891    7.05669
       H    15.92056   14.16362    4.70860
       O    15.15787   14.53818    4.21982
      H1    14.72500   15.10836    4.85151
       H     7.28107   12.78524    6.03249
       O     8.18104   13.09391    5.91784
      H1     8.16800   13.97295    6.25448
       H     7.13470   11.89753    8.37818
       O     8.06111   11.71586    8.23795
      H1     8.22799   12.14922    7.39131
       H    10.82971   15.44096    8.86948
       O    11.20830   15.12271    9.69923
      H1    10.46316   15.01973   10.27714
       H     7.74703   14.52459    2.94754
       O     8.65963   14.57971    3.14683
      H1     8.74208   13.92292    3.81168
       H    12.10442   14.38077    1.72038
       O    12.37224   14.62562    0.81452
      H1    12.48414   13.74696    0.42367

