60
frame 3 | Written by MDAnalysis XYZWriter (release 2.4.3)
       H   -10.04131   -5.09889  -14.73446
       O    -9.35217   -5.69112  -14.33456
      H1    -8.55095   -5.18254  -14.41528
       H   -10.07130   -8.57477  -16.69947
       O   -10.33288   -7.76222  -17.18884
      H1   -11.15157   -7.42534  -16.74956
       H    -8.66421   -6.11423  -16.44584
       O    -7.80851   -6.13766  -16.88367
      H1    -8.04808   -5.91802  -17.79328
       H    -7.83853   -2.92197  -12.21325
       O    -7.53010   -2.14341  -11.70247
      H1    -6.65415   -2.39678  -11.37831
       H    -6.49707   -1.19698  -16.22125
       O    -6.94867   -1.33385  -15.38433
      H1    -6.90938   -0.46948  -14.95520
       H    -7.34189   -9.80625  -17.28942
       O    -7.23446   -8.94487  -17.66344
      H1    -7.84269   -8.39513  -17.17843
       H   -10.53799   -2.39046  -18.54655
       O    -9.96057   -2.91476  -17.96308
      H1    -9.12412   -2.76185  -18.41976
       H   -13.14216   -1.90812  -13.72908
       O   -14.00338   -1.47641  -13.67198
      H1   -13.95933   -0.94015  -14.45885
       H    -8.31046  -10.00065  -11.06713
       O    -9.14426   -9.53677  -11.07737
      H1    -9.03416   -8.99571  -11.89666
       H    -3.91264   -5.63333  -14.47160
       O    -4.34030   -4.97465  -13.91348
      H1    -5.12926   -4.80164  -14.42351
       H   -10.77150   -3.69293  -11.13243
       O   -10.91662   -4.56189  -11.59775
      H1   -10.00320   -4.94044  -11.67258
       H   -15.12729   -7.43275  -14.09669
       O   -14.18106   -7.41456  -14.26974
      H1   -13.97196   -8.34364  -14.38029
       H    -6.72744   -6.91626  -14.38750
       O    -6.56671   -7.70349  -13.83355
      H1    -6.73024   -7.36574  -12.93293
       H    -9.58410   -7.46666  -13.83952
       O    -9.73749   -8.27763  -13.39786
      H1    -9.19506   -8.89890  -13.92759
       H    -8.79977   -1.45825  -15.18258
       O    -9.70206   -1.40672  -15.50384
      H1    -9.78027   -1.89247  -16.33156
       H    -6.98693   -3.36936  -15.11450
       O    -7.23746   -4.24335  -14.77796
      H1    -7.15505   -4.79128  -15.58149
       H   -13.14980   -5.49507  -16.64078
       O   -13.94411   -6.02044  -16.80598
      H1   -14.09007   -6.45248  -15.94903
       H   -12.50541   -5.56054  -11.83262
       O   -13.43561   -5.78890  -11.96078
      H1   -13.49996   -6.26685  -12.79521
       H   -10.85122   -2.62470  -14.24027
       O   -11.71093   -3.00705  -13.99809
      H1   -11.60030   -3.67300  -13.28604
       H   -10.76324   -4.36452  -16.81510
       O   -11.37747   -4.69035  -16.11543
      H1   -11.47459   -3.89679  -15.54968

