60
frame 0 | Written by MDAnalysis XYZWriter (release 2.4.3)
       H    14.41129  -11.95882    6.62115
       O    13.63214  -11.77784    6.10289
      H1    13.63875  -12.47502    5.43701
       H    15.38326  -13.69795    6.65044
       O    16.09674  -13.34104    6.12630
      H1    15.88047  -13.58560    5.22215
       H    14.11705  -15.31753    5.55235
       O    13.66319  -14.80736    6.22887
      H1    13.60587  -15.32020    7.01529
       H    14.60147  -11.22163   10.45599
       O    14.88620  -11.60587    9.61172
      H1    14.83335  -10.88483    8.99551
       H    18.43804  -13.67571    8.06056
       O    19.05356  -13.99677    7.38253
      H1    19.17705  -13.18730    6.86182
       H    17.27415  -17.32670    8.47730
       O    16.53568  -16.74132    8.24357
      H1    16.88190  -15.89997    8.54741
       H    18.70644  -18.97369    8.97265
       O    18.52990  -18.65075    8.07438
      H1    19.24338  -18.03570    7.93570
       H    15.06185  -18.19065    5.58042
       O    15.84389  -18.47543    6.06904
      H1    16.09674  -17.72142    6.61627
       H    15.90978  -17.93726   12.88612
       O    15.64017  -17.54651   12.02084
      H1    14.91638  -16.97356   12.23946
       H    13.25076  -10.03885   11.62033
       O    14.18613  -10.32701   11.68481
      H1    14.19616  -11.04399   12.30888
       H    14.89835  -15.53213   14.81536
       O    15.76002  -15.09456   14.97216
      H1    15.64548  -14.17295   14.66985
       H    15.09641  -12.68705   13.29036
       O    15.90738  -12.95198   12.86872
      H1    16.25568  -12.07071   12.60294
       H    17.84768  -10.26635   12.35225
       O    17.01661  -10.44338   12.81453
      H1    17.35294  -10.85349   13.65091
       H    17.94288  -13.66737    9.89614
       O    17.27757  -14.26843    9.49982
      H1    16.50141  -13.69421    9.39378
       H    13.42693  -17.10050    8.41228
       O    13.95038  -16.31236    8.59872
      H1    14.89905  -16.50808    8.40754
       H    18.11497  -16.17235   13.03484
       O    18.11044  -15.75559   13.89556
      H1    17.18959  -15.44600   13.99927
       H    17.02422  -16.88141   11.33024
       O    17.88756  -16.43684   11.19064
      H1    17.62457  -15.69556   10.71441
       H    13.74705  -13.06700   10.13564
       O    12.93064  -13.51945   10.37697
      H1    12.68550  -14.02008    9.58923
       H    13.27278  -15.29997   13.04588
       O    13.54269  -15.68430   12.20782
      H1    13.66940  -14.90747   11.60120
       H    18.57328  -15.09274    5.85000
       O    18.56732  -15.16296    4.88975
      H1    18.40008  -16.08530    4.72175

