60
frame 3 | Written by MDAnalysis XYZWriter (release 2.4.3)
       H     3.83200   -0.14045    0.68883
       O     3.39266   -0.71246    1.32122
      H1     2.52389   -0.93372    0.93744
       H     4.03700   -2.40928    0.84692
       O     3.98772   -3.32012    0.55720
      H1     4.69706   -3.41910   -0.07048
       H     7.54713   -1.00949   -5.14775
       O     7.93060   -1.87709   -5.16506
      H1     7.85034   -2.08161   -6.11844
       H     6.28092    1.30698   -5.06087
       O     6.48262    0.56826   -4.47996
      H1     6.40741    0.91467   -3.54857
       H     7.55250    3.65877   -2.98110
       O     8.08716    4.27604   -3.47903
      H1     7.50850    4.50109   -4.18646
       H     7.35305    2.71699    2.43258
       O     6.63601    2.43461    1.82213
      H1     5.90326    3.04328    2.04452
       H     8.97311   -0.03220   -2.45953
       O     8.71357    0.60212   -1.78596
      H1     9.61342    0.89985   -1.49075
       H     9.55996   -1.31496   -4.34552
       O    10.13420   -0.76999   -3.80016
      H1    10.79039   -1.36179   -3.38950
       H     7.75738   -0.96928    1.38846
       O     8.36205   -1.72374    1.33165
      H1     8.91483   -1.56376    2.10127
       H     4.47974   -1.31718   -5.72153
       O     5.02192   -1.57532   -4.95557
      H1     5.31643   -0.76377   -4.60723
       H     5.29273    1.82859    0.08050
       O     4.52547    1.33521   -0.22169
      H1     3.74968    1.87909   -0.25708
       H     9.91134   -3.08235   -1.58461
       O     9.63963   -3.78050   -2.19583
      H1    10.34411   -3.67851   -2.84657
       H     6.57241    0.73527    2.02185
       O     6.33276   -0.18796    1.93519
      H1     6.64012   -0.54483    2.77289
       H     5.14836    3.06229   -2.45938
       O     4.27180    3.42847   -2.37577
      H1     3.69465    2.67926   -2.36382
       H     6.48957   -3.61988   -1.92808
       O     6.40495   -3.01394   -1.17865
      H1     6.25663   -2.10842   -1.51340
       H     3.75293   -1.64839   -3.14087
       O     2.97387   -1.08662   -3.00383
      H1     2.78110   -1.11985   -2.07366
       H    10.81772   -1.08598   -0.55346
       O    10.53491   -1.94470   -0.24075
      H1     9.71864   -1.70498    0.20603
       H     7.41289    3.15211   -1.05614
       O     6.94110    2.61993   -1.71994
      H1     7.50734    1.85182   -1.79033
       H     6.90096    0.10694   -1.35598
       O     6.18204   -0.42762   -1.65559
      H1     5.41275    0.08106   -1.43833
       H    11.09794    1.42683    0.15186
       O    11.14164    0.93274   -0.66889
      H1    12.08620    1.02105   -0.92490

