60
frame 2 | Written by MDAnalysis XYZWriter (release 2.4.3)
       H    12.61913    0.30443    9.46705
       O    13.16118   -0.44962    9.74766
      H1    13.26974   -0.30212   10.69776
       H    10.14792    6.66437   10.83178
       O     9.54544    6.25851   10.20007
      H1    10.01317    5.42771   10.07057
       H    13.05786    3.99243    5.81876
       O    12.52335    4.53394    6.42774
      H1    12.16680    5.24032    5.90066
       H     8.57381    3.61348   12.11577
       O     9.34914    3.07219   11.84608
      H1     8.91932    2.52184   11.15993
       H    15.04053   -0.24364    9.73047
       O    15.97278   -0.26432    9.52635
      H1    16.41037   -0.14135   10.38099
       H    12.06339    5.64420    9.74538
       O    12.19654    5.90412    8.83039
      H1    11.47960    6.50560    8.66472
       H     7.55957    0.50816   11.20723
       O     7.82426    1.13055   10.51736
      H1     6.97934    1.49150   10.21772
       H    10.67006    0.30906   12.21364
       O    10.67213   -0.01776   11.32435
      H1    11.62133   -0.11720   11.15200
       H    10.69520    1.23453   10.10765
       O    11.18568    1.54951    9.33782
      H1    10.84110    0.96590    8.61397
       H    10.91066   -2.54602    9.32893
       O    11.54085   -2.67371    8.60901
      H1    12.39933   -2.62822    9.07133
       H    14.33105    3.32480    9.23963
       O    13.62070    3.84947    9.66451
      H1    13.24617    4.37663    8.95489
       H    13.32602    0.50463    6.63581
       O    14.15054    0.80126    6.22543
      H1    14.72089    0.03104    6.15195
       H     8.07909    0.72225    7.32951
       O     8.75659    1.36721    7.59843
      H1     8.53251    1.56046    8.51493
       H    12.56359   -3.16465    6.26217
       O    12.12743   -2.50258    5.72734
      H1    12.33562   -1.73568    6.25202
       H    11.06571    0.24996    6.14239
       O    11.54408   -0.07058    6.86683
      H1    11.03424   -0.80554    7.20050
       H    12.33085    4.17220   11.02787
       O    11.49201    4.65116   11.22446
      H1    10.88901    3.91848   11.47692
       H    13.20656    0.82818   13.35940
       O    13.44410    0.18388   12.68045
      H1    13.57281   -0.63513   13.17752
       H    10.88031    3.79689    5.89862
       O    10.23620    3.23213    5.53581
      H1     9.85109    2.76945    6.32215
       H     9.71773   -1.34831   10.82505
       O     9.34648   -2.06495   10.31815
      H1     8.88860   -2.53643   11.02199
       H    11.04158    4.66376    8.54705
       O    10.20487    4.16237    8.43191
      H1    10.49691    3.24949    8.62312

