60
frame 3 | Written by MDAnalysis XYZWriter (release 2.4.3)
       H   -18.25513   -4.04463   -9.77620
       O   -19.18933   -4.28694   -9.87951
      H1   -19.16008   -5.20248  -10.25441
       H   -17.58460  -13.60575  -13.70887
       O   -17.57216  -12.78127  -13.16327
      H1   -18.39953  -12.84351  -12.67818
       H   -17.67031   -6.83191  -15.07377
       O   -17.08085   -6.92282  -14.30243
      H1   -17.65618   -7.31003  -13.63468
       H   -15.54964   -9.16651  -10.58195
       O   -16.39181   -9.65165  -10.50339
      H1   -16.15434  -10.52487  -10.71462
       H   -17.52859   -4.41690  -18.27948
       O   -18.19678   -4.61546  -18.93931
      H1   -18.99743   -4.22675  -18.59302
       H   -15.97819   -5.15829   -9.08882
       O   -16.62260   -4.67385   -9.64074
      H1   -16.39021   -4.90371  -10.54449
       H   -17.44700   -8.97963  -12.10748
       O   -18.29415   -8.61867  -12.34798
      H1   -18.60887   -8.23767  -11.52337
       H   -14.61122   -6.76744  -18.44052
       O   -14.89961   -7.31815  -19.18192
      H1   -15.09397   -8.20287  -18.79196
       H   -17.37341   -5.07753  -14.29467
       O   -17.78499   -4.21945  -14.15042
      H1   -18.63860   -4.27104  -14.55520
       H   -14.24752   -4.01662  -12.18901
       O   -14.61015   -3.27293  -11.65823
      H1   -14.78262   -2.60058  -12.34591
       H   -14.75228   -4.05674  -18.65312
       O   -15.31460   -4.09026  -17.85719
      H1   -14.95067   -4.85361  -17.39382
       H   -13.15677  -10.00159  -17.65054
       O   -14.05283   -9.84942  -17.34299
      H1   -14.01163   -9.69550  -16.41359
       H   -14.48482   -7.24849   -9.22975
       O   -14.65929   -7.56293  -10.12746
      H1   -14.31669   -6.84719  -10.68029
       H   -15.12729   -7.43275  -14.09669
       O   -14.18106   -7.41456  -14.26974
      H1   -13.97196   -8.34364  -14.38029
       H   -17.28359   -2.77655  -13.26554
       O   -17.04972   -1.83783  -13.10791
      H1   -17.29103   -1.38262  -13.92814
       H   -16.04862   -2.49456  -10.63402
       O   -16.30971   -1.87201   -9.95379
      H1   -16.69999   -2.39359   -9.22524
       H   -13.14980   -5.49507  -16.64078
       O   -13.94411   -6.02044  -16.80598
      H1   -14.09007   -6.45248  -15.94903
       H   -12.50541   -5.56054  -11.83262
       O   -13.43561   -5.78890  -11.96078
      H1   -13.49996   -6.26685  -12.79521
       H   -14.94070  -10.73492  -14.46723
       O   -14.30826  -10.01566  -14.33648
      H1   -13.46396  -10.47575  -14.18945
       H   -17.57308  -10.87502  -16.28468
       O   -16.83931  -10.23743  -16.19082
      H1   -17.22500   -9.50273  -15.72643

