60
frame 3 | Written by MDAnalysis XYZWriter (release 2.4.3)
       H    -3.66013    7.43597  -10.76006
       O    -3.13019    7.53716   -9.94963
      H1    -2.56235    6.73161  -10.00453
       H     0.69141    7.82093  -14.58187
       O    -0.09598    7.76253  -13.98305
      H1    -0.73217    7.28875  -14.50730
       H    -4.32368    2.65473  -15.74532
       O    -3.64272    2.09606  -16.16097
      H1    -3.06139    2.79695  -16.50532
       H    -0.26148    6.78536  -12.44439
       O    -0.82417    6.28833  -11.81796
      H1    -1.57567    6.04085  -12.33519
       H    -1.99567    7.14332  -16.05579
       O    -1.80475    6.26480  -15.68920
      H1    -2.17039    5.65222  -16.34784
       H    -2.06794    4.02301  -18.03844
       O    -1.89607    3.84795  -17.09822
      H1    -1.10464    3.29004  -17.13096
       H     1.88734    4.71185  -16.43133
       O     1.03385    4.88904  -16.82525
      H1     0.61696    5.50993  -16.21353
       H    -5.15260    0.90621  -12.32292
       O    -4.23410    0.80514  -12.59006
      H1    -4.15769   -0.13647  -12.74659
       H    -4.49799    5.17881  -10.04347
       O    -5.39836    5.01384  -10.31289
      H1    -5.98856    5.54530   -9.77854
       H    -5.47233    7.99358  -11.64554
       O    -5.08079    7.33056  -12.24236
      H1    -5.23431    6.48535  -11.82645
       H    -5.67334    4.08380  -14.34874
       O    -4.95148    3.80940  -13.73159
      H1    -5.42874    3.10193  -13.20410
       H     0.05902    1.87756  -14.11964
       O     0.83859    2.05361  -14.64905
      H1     1.15331    2.84172  -14.22861
       H    -3.28183    1.59708  -10.59375
       O    -2.46099    2.14354  -10.52038
      H1    -2.15626    2.13151  -11.44801
       H    -1.44422    3.10859  -13.22527
       O    -1.39894    2.17011  -12.96835
      H1    -1.87948    1.66840  -13.63808
       H     2.46708    4.28968  -13.25474
       O     1.60623    4.60674  -13.42209
      H1     1.18372    4.49159  -12.56244
       H     1.58949    4.50216   -9.68713
       O     1.18702    4.62380  -10.56055
      H1     0.36722    5.11583  -10.42380
       H    -3.83862    6.53761  -15.00841
       O    -4.77988    6.78154  -15.12796
      H1    -5.08223    6.91963  -14.22749
       H    -1.88081    4.82349   -9.03080
       O    -2.41644    4.86548   -9.86764
      H1    -2.60850    3.93988  -10.03894
       H    -3.16339    4.13282  -13.68394
       O    -2.36112    4.69474  -13.56917
      H1    -2.25649    5.07087  -14.44431
       H    -1.21638    8.27431  -11.50812
       O    -1.03449    9.18301  -11.75074
      H1    -0.67494    9.08061  -12.63879

