60
frame 0 | Written by MDAnalysis XYZWriter (release 2.4.3)
       H   -13.18292    6.90435   14.51152
       O   -12.64234    6.59382   15.21758
      H1   -12.01998    7.35077   15.35960
       H    -9.21557    6.89027   14.24595
       O    -9.27839    7.46160   13.42593
      H1    -8.39264    7.87241   13.44290
       H   -10.26069    4.70283   15.29467
       O   -10.63346    4.73991   14.40590
      H1   -11.25604    5.48434   14.53528
       H    -9.90688    5.04611   18.12713
       O   -10.87646    5.11519   17.90087
      H1   -11.18322    4.32824   18.49287
       H    -9.20207    2.76637   16.85213
       O   -10.03858    2.55691   16.46165
      H1   -10.64305    3.09469   16.96506
       H   -14.16698    3.56413   16.53371
       O   -14.82352    4.14570   16.15180
      H1   -14.69764    4.96105   16.62545
       H    -8.46864    3.22528   13.40509
       O    -7.55648    3.28926   13.10760
      H1    -7.35334    2.30140   13.11778
       H   -14.06883    1.85172   19.03104
       O   -13.36596    1.16021   18.82513
      H1   -13.85428    0.41745   19.02206
       H   -10.34034    1.86378   12.86921
       O    -9.84642    1.34021   13.50548
      H1    -9.61863    0.55216   13.01024
       H   -10.40044    7.16900   18.79242
       O   -10.27314    7.92888   19.35595
      H1    -9.60892    8.41278   18.76630
       H   -13.98473   -0.37264   14.81316
       O   -14.47773   -0.00128   15.57332
      H1   -13.85096    0.75289   15.75294
       H    -8.51986   -0.42458   15.68847
       O    -9.50492   -0.41152   15.78004
      H1    -9.78485    0.36332   15.26232
       H    -7.77527    5.75669   19.02795
       O    -8.11650    5.27083   18.24535
      H1    -7.35823    5.02190   17.68523
       H   -13.21263    5.78584   18.28425
       O   -13.74205    6.28900   17.61922
      H1   -13.32075    6.32946   16.77443
       H    -8.91956    0.12201   17.45437
       O    -8.76530    0.04909   18.41926
      H1    -8.14427   -0.69196   18.53498
       H    -7.87569    1.58469   18.11333
       O    -7.67928    2.44971   17.87588
      H1    -8.31458    2.84691   18.49802
       H   -12.06187    2.43949   11.71435
       O   -11.39421    3.05798   12.07924
      H1   -11.84232    3.53314   12.79926
       H    -6.63809    0.91268   15.51679
       O    -6.95158    0.40726   14.78020
      H1    -6.18498   -0.24355   14.69505
       H    -8.56392    6.49673   17.02394
       O    -8.69772    7.14701   16.28566
      H1    -8.68586    7.96882   16.78845
       H   -13.10936    1.54606   17.25599
       O   -12.91865    2.11216   16.44779
      H1   -11.95698    2.11890   16.39017

