60
frame 3 | Written by MDAnalysis XYZWriter (release 2.4.3)
       H    -3.63128  -15.63587    8.49275
       O    -4.53212  -15.63230    8.87191
      H1    -4.48679  -14.96064    9.59672
       H    -6.93420  -11.70255   12.06442
       O    -7.00977  -12.16774   11.22423
      H1    -6.19785  -12.69269   11.21759
       H    -8.85848  -16.25571    7.25253
       O    -9.41236  -16.92417    6.87425
      H1    -9.99144  -16.42853    6.29710
       H    -6.39011  -13.93562    7.04998
       O    -5.59871  -14.31668    6.69097
      H1    -5.25904  -14.83211    7.46342
       H    -2.44770  -16.30603    6.69738
       O    -2.38035  -15.62820    7.38575
      H1    -1.95099  -14.85021    6.97175
       H    -9.42524  -14.37586    9.95634
       O    -8.92401  -13.66714    9.51386
      H1    -8.29678  -13.35899   10.17190
       H    -5.80738   -9.18631    5.93960
       O    -5.26243   -9.69762    6.51171
      H1    -4.48963   -9.17348    6.69564
       H    -1.91811  -12.62851    6.27507
       O    -1.29595  -13.31383    6.55150
      H1    -0.98502  -13.59658    5.69281
       H    -2.09440  -12.40647    9.67661
       O    -2.99976  -12.06086    9.66267
      H1    -3.11334  -11.80052    8.75087
       H   -10.68447  -11.36109    6.03677
       O   -10.36941  -11.79581    5.23954
      H1    -9.44990  -11.44613    5.13535
       H    -4.26761  -13.87224    5.49804
       O    -3.91258  -13.85426    4.59161
      H1    -3.58640  -14.73185    4.42246
       H    -9.12456  -14.61768    4.43343
       O    -9.61248  -14.34031    5.19229
      H1    -9.64460  -13.39760    5.16549
       H    -4.28706  -11.21874    6.83068
       O    -3.71583  -11.91329    7.18449
      H1    -4.32837  -12.65902    7.30457
       H    -4.32293  -13.05778   10.12225
       O    -4.78032  -13.67432   10.75672
      H1    -4.17194  -13.67048   11.48440
       H    -8.25907   -9.80516    4.62195
       O    -7.81548  -10.66969    4.60695
      H1    -7.48026  -10.82133    5.49402
       H    -6.38515  -15.90796    5.55397
       O    -7.12423  -16.45946    5.24189
      H1    -7.76820  -16.49463    5.96863
       H    -7.89818  -11.37971    7.85720
       O    -7.59194  -11.93916    7.15550
      H1    -8.22829  -12.67420    7.12241
       H    -4.24356  -17.59025   10.79373
       O    -5.01918  -17.87120   10.30091
      H1    -5.18901  -17.16468    9.66259
       H    -5.64354  -16.84548    2.51363
       O    -5.90327  -15.97145    2.82635
      H1    -6.37973  -16.29675    3.62898
       H    -5.28262  -12.66473    2.20569
       O    -6.20394  -12.42822    2.30067
      H1    -6.12918  -11.84238    3.08286

