60
frame 3 | Written by MDAnalysis XYZWriter (release 2.4.3)
       H    11.46045  -12.50569   -8.39055
       O    11.15831  -11.90221   -7.70560
      H1    11.95887  -11.40031   -7.44887
       H     8.33116   -5.88475  -13.89132
       O     9.14410   -5.55062  -13.48114
      H1     9.78687   -6.25593  -13.58775
       H    11.02727   -8.37651  -10.31881
       O    11.81518   -8.79538  -10.68475
      H1    11.59784   -8.70553  -11.61398
       H    11.62179   -4.74105  -10.22208
       O    10.87033   -4.15371  -10.17744
      H1    10.11906   -4.79548  -10.29980
       H    14.03624  -12.47686   -9.83805
       O    13.38667  -11.83792   -9.55824
      H1    12.67530  -12.01411  -10.17490
       H     5.82693   -6.62391  -12.04363
       O     6.08347   -6.88391  -11.14335
      H1     6.73954   -7.56660  -11.31769
       H     9.77238  -12.43429  -12.72355
       O     9.41133  -13.00293  -12.02500
      H1     9.61863  -12.52293  -11.23417
       H    10.80068   -8.40689  -13.92276
       O    10.33595   -8.12500  -13.11905
      H1     9.44228   -8.47089  -13.24136
       H     9.08890   -5.84790  -11.43892
       O     8.88800   -5.81792  -10.50032
      H1     7.99407   -5.45800  -10.46984
       H     8.78599   -8.57806   -7.39170
       O     8.46126   -8.62490   -6.49846
      H1     7.62212   -9.12597   -6.55957
       H     9.31169   -7.16094   -9.52640
       O     9.52233   -8.05323   -9.22318
      H1     8.82618   -8.56872   -9.68311
       H     7.29184  -10.40690  -10.58146
       O     7.96491  -10.02604   -9.99274
      H1     8.80417  -10.46930  -10.21330
       H    13.29345   -6.62221  -10.18901
       O    13.13805   -5.71253   -9.89066
      H1    13.32288   -5.81510   -8.94840
       H    10.94903  -10.66666  -10.96925
       O    10.45430  -11.23744  -10.35973
      H1    10.84258  -11.06106   -9.49093
       H    13.05579  -11.23719  -12.77677
       O    12.16007  -10.93239  -12.57573
      H1    11.71683  -10.90031  -13.44303
       H    14.56658   -8.66606  -12.40325
       O    14.54767   -8.47318  -13.35641
      H1    15.46086   -8.14337  -13.51929
       H    10.44624   -3.92133   -7.89037
       O    10.65393   -4.51702   -7.16013
      H1    11.28450   -5.15773   -7.53674
       H    13.69570   -8.59229  -10.56991
       O    14.58357   -8.30933  -10.56216
      H1    14.98577   -9.00783  -10.01689
       H    13.96986   -5.97278   -7.05365
       O    13.03801   -6.04605   -7.24008
      H1    12.85711   -6.97847   -7.07353
       H     7.31194   -8.28061  -13.96076
       O     7.70709   -8.67656  -13.15057
      H1     6.89860   -9.09225  -12.81198

