60
frame 2 | Written by MDAnalysis XYZWriter (release 2.4.3)
       H   -14.72598  -14.42615    3.66154
       O   -15.50850  -14.03947    3.31524
      H1   -15.10425  -13.35844    2.80431
       H   -16.62995  -17.63508    0.99607
       O   -16.75219  -17.19347    1.85548
      H1   -17.70263  -16.92737    1.81654
       H   -14.27579  -13.82258    6.32125
       O   -14.36273  -13.28059    7.12010
      H1   -14.72891  -13.92906    7.72221
       H   -16.43554  -14.42481    5.10149
       O   -16.97834  -14.06983    5.78978
      H1   -17.08439  -14.81134    6.39929
       H   -12.59171  -15.46103    4.15806
       O   -13.41490  -15.45149    4.68319
      H1   -13.89496  -16.22960    4.41103
       H   -12.52445  -11.77790    2.05189
       O   -13.20371  -11.08700    2.01630
      H1   -13.48508  -10.86279    2.91991
       H   -10.69780  -11.94488    4.61680
       O   -10.99564  -11.33445    3.93530
      H1   -10.28639  -11.37540    3.29822
       H   -14.53344  -11.08660   -1.28915
       O   -14.56461  -11.99419   -1.65346
      H1   -15.48806  -12.14542   -1.58230
       H   -16.02909  -11.37638    5.42665
       O   -15.40974  -11.20648    6.12222
      H1   -15.39567  -12.06128    6.53428
       H   -13.51195  -14.38782    0.43329
       O   -12.54420  -14.30560    0.49779
      H1   -12.32625  -14.84490   -0.29948
       H   -10.59677  -14.11525    3.18636
       O   -11.48603  -14.53152    3.18779
      H1   -11.81093  -14.47277    2.27081
       H   -14.35863  -10.40422    0.73747
       O   -14.96712  -10.11875    0.06101
      H1   -14.87878   -9.13780    0.10909
       H   -17.39399  -14.92072    2.81144
       O   -18.35106  -14.84160    2.99340
      H1   -18.50676  -15.39753    3.80240
       H   -17.87796  -15.03935   -1.20246
       O   -17.01657  -15.49165   -1.40742
      H1   -16.37881  -14.87324   -1.03020
       H   -17.23039  -12.54729    4.06363
       O   -17.19832  -11.58495    4.05654
      H1   -17.92948  -11.25144    3.52483
       H   -16.18893  -11.35273    0.80453
       O   -16.48707  -12.08629    1.38536
      H1   -16.51769  -11.68856    2.27573
       H   -15.75377   -9.18447    3.16910
       O   -14.85656   -9.38234    3.45736
      H1   -14.91226   -9.36890    4.42520
       H   -15.81485  -17.04009    3.21672
       O   -15.40800  -17.21701    4.08090
      H1   -15.01456  -18.08376    3.94181
       H   -12.53509  -10.90810    4.95514
       O   -12.82293  -10.26461    5.61002
      H1   -13.62490  -10.61274    6.05530
       H   -15.77713  -13.49246    0.62218
       O   -15.31837  -14.27929    0.33006
      H1   -15.56534  -14.95079    0.96786

