60
frame 2 | Written by MDAnalysis XYZWriter (release 2.4.3)
       H     4.09782   13.87409  -14.12162
       O     3.79015   14.15763  -13.25365
      H1     3.14710   14.82744  -13.50601
       H     5.26708    8.21678  -13.63262
       O     5.61755    7.78575  -14.40305
      H1     6.52348    7.59457  -14.19248
       H     4.19535   11.34341  -18.90384
       O     4.29079   11.59231  -17.99827
      H1     4.96978   12.26956  -17.99304
       H     1.49144   11.75640  -16.91619
       O     1.10042   11.15784  -16.24919
      H1     1.13542   10.31138  -16.71424
       H     2.02377    9.15037  -15.44010
       O     2.58757    8.93856  -14.70381
      H1     2.57703    7.98421  -14.61193
       H     9.76238    9.47717  -13.75284
       O     8.82219    9.29483  -13.85995
      H1     8.53993   10.01529  -14.45610
       H     9.41170    7.90488  -17.57108
       O     8.54522    7.84858  -18.02625
      H1     8.22797    6.97814  -17.75792
       H     7.06254   12.99350  -18.18791
       O     7.64685   12.27826  -17.95757
      H1     7.42965   11.65645  -18.64443
       H     8.46620    6.25960  -13.65110
       O     8.23884    6.75788  -14.45917
      H1     8.60774    7.62739  -14.28575
       H     0.41127    8.57536  -17.63899
       O     1.31495    8.75180  -17.40033
      H1     1.79171    8.70241  -18.23415
       H     7.85514   11.77856  -16.19902
       O     8.03295   11.74366  -15.23489
      H1     8.94658   12.07652  -15.21614
       H     2.87108   12.76816  -17.80285
       O     2.08275   13.25103  -17.55342
      H1     2.18934   14.04120  -18.08508
       H     5.39811   11.11530  -13.61303
       O     6.15023   11.52189  -13.16394
      H1     6.81582   11.62805  -13.83221
       H     2.44225    6.84276  -17.23964
       O     2.88373    6.17980  -16.66047
      H1     2.63124    6.39665  -15.75694
       H     5.08836   10.33216  -16.73675
       O     5.85919    9.80079  -16.53148
      H1     5.51801    9.18933  -15.88340
       H     2.86402   11.93816  -13.53870
       O     3.56364   11.27691  -13.46814
      H1     3.14114   10.46323  -13.79951
       H     4.41878    9.22206  -11.50424
       O     4.39151    8.43431  -12.08331
      H1     4.82916    7.71013  -11.59147
       H     4.74022    6.95880  -17.37720
       O     5.45435    7.36738  -17.91708
      H1     5.73789    8.17727  -17.42262
       H     4.00750    6.35047  -14.52608
       O     3.18582    6.35442  -13.94558
      H1     2.92934    5.40774  -13.95597
       H     4.62832   12.28169  -14.95279
       O     4.91092   13.04107  -15.53263
      H1     5.86648   13.06076  -15.46172

