60
frame 3 | Written by MDAnalysis XYZWriter (release 2.4.3)
       H    11.02727   -8.37651  -10.31881
       O    11.81518   -8.79538  -10.68475
      H1    11.59784   -8.70553  -11.61398
       H    11.62179   -4.74105  -10.22208
       O    10.87033   -4.15371  -10.17744
      H1    10.11906   -4.79548  -10.29980
       H    15.27997  -11.14210   -9.51243
       O    15.86202  -10.53616   -9.97833
      H1    16.72944  -10.58038   -9.52814
       H    16.22573   -4.76163   -6.31087
       O    16.15679   -5.30408   -7.11165
      H1    17.03449   -5.68943   -7.16159
       H    10.80068   -8.40689  -13.92276
       O    10.33595   -8.12500  -13.11905
      H1     9.44228   -8.47089  -13.24136
       H    14.20040   -3.29654  -12.08477
       O    14.90803   -3.93110  -12.20248
      H1    15.68575   -3.38351  -12.12775
       H     9.08890   -5.84790  -11.43892
       O     8.88800   -5.81792  -10.50032
      H1     7.99407   -5.45800  -10.46984
       H     9.31169   -7.16094   -9.52640
       O     9.52233   -8.05323   -9.22318
      H1     8.82618   -8.56872   -9.68311
       H    13.80800   -8.68743   -5.34650
       O    13.09798   -8.51741   -5.98884
      H1    12.26699   -8.69641   -5.52756
       H    18.75861   -6.76928   -9.10316
       O    18.37288   -7.33895   -9.78138
      H1    17.50539   -6.94324  -10.01572
       H    13.29345   -6.62221  -10.18901
       O    13.13805   -5.71253   -9.89066
      H1    13.32288   -5.81510   -8.94840
       H    17.40385   -5.72815  -11.94481
       O    18.11595   -5.66960  -12.59576
      H1    18.24460   -4.73431  -12.68200
       H    10.94903  -10.66666  -10.96925
       O    10.45430  -11.23744  -10.35973
      H1    10.84258  -11.06106   -9.49093
       H    15.73054   -6.77940  -10.65362
       O    16.17199   -5.90010  -10.60889
      H1    15.46072   -5.30094  -10.85175
       H    11.97188   -3.06425  -11.26185
       O    12.53800   -2.46041  -11.69048
      H1    12.77873   -1.82741  -10.98444
       H    14.56658   -8.66606  -12.40325
       O    14.54767   -8.47318  -13.35641
      H1    15.46086   -8.14337  -13.51929
       H    14.70790   -4.34003   -9.35247
       O    14.87572   -3.56465   -8.86154
      H1    15.53084   -3.87238   -8.23438
       H    10.44624   -3.92133   -7.89037
       O    10.65393   -4.51702   -7.16013
      H1    11.28450   -5.15773   -7.53674
       H    13.69570   -8.59229  -10.56991
       O    14.58357   -8.30933  -10.56216
      H1    14.98577   -9.00783  -10.01689
       H    13.96986   -5.97278   -7.05365
       O    13.03801   -6.04605   -7.24008
      H1    12.85711   -6.97847   -7.07353

