60
frame 2 | Written by MDAnalysis XYZWriter (release 2.4.3)
       H    13.39828   18.00798    3.02022
       O    12.47401   18.21684    3.21617
      H1    12.35965   18.15206    4.18526
       H     5.39568   18.57332    5.46578
       O     6.00592   18.10896    6.03758
      H1     5.45060   17.46641    6.47140
       H    10.81132   17.16455    7.62750
       O    10.32089   16.35918    7.38196
      H1    10.92294   15.87554    6.80054
       H     5.69119   17.14037    3.80288
       O     5.85928   17.87830    3.21810
      H1     5.00053   18.09262    2.81543
       H     5.81403   15.48711    1.08949
       O     6.60811   15.43560    1.62369
      H1     6.60662   16.22808    2.12819
       H    11.45028   16.47024   -1.86451
       O    12.29692   16.82137   -1.54659
      H1    12.45014   16.15820   -0.90372
       H     5.85050   16.25679   -1.40879
       O     6.55422   16.32114   -2.07233
      H1     6.92503   17.21547   -1.93000
       H     6.39509   13.39276   -0.46331
       O     6.09622   13.25280    0.44595
      H1     6.41557   13.99618    0.93762
       H    10.36031   17.29609    0.97472
       O    10.43505   18.24863    1.13065
      H1    11.09793   18.19940    1.84159
       H     8.83579   14.55699   -0.48288
       O     8.50718   13.89572   -1.10088
      H1     8.39364   14.41041   -1.91107
       H     6.96754   16.01617    7.98257
       O     7.39492   15.71372    7.16670
      H1     8.32792   15.74774    7.41589
       H    11.45316   14.25873    5.12814
       O    11.73761   14.45020    6.01966
      H1    12.28182   13.71609    6.26292
       H     3.88532   15.78605    0.40394
       O     4.54755   16.36446   -0.00163
      H1     4.03277   17.03632   -0.45775
       H     9.51762   15.13589    1.54351
       O     9.81203   15.46423    0.69888
      H1    10.77220   15.31939    0.77310
       H    11.66505   18.64270    6.34361
       O    11.96369   17.91156    5.77989
      H1    11.25066   17.27185    5.90910
       H    10.64548   13.40841    3.10622
       O    11.46339   13.93632    3.27605
      H1    12.20272   13.31926    3.14917
       H     7.67491   18.34459    3.27933
       O     8.61698   18.58707    3.39940
      H1     8.97410   18.14069    2.62619
       H     7.74703   14.52459    2.94754
       O     8.65963   14.57971    3.14683
      H1     8.74208   13.92292    3.81168
       H    13.69246   15.90153    0.98906
       O    14.47587   16.37816    1.26399
      H1    14.85450   16.62293    0.40538
       H    12.10442   14.38077    1.72038
       O    12.37224   14.62562    0.81452
      H1    12.48414   13.74696    0.42367

