60
frame 0 | Written by MDAnalysis XYZWriter (release 2.4.3)
       H    17.29158    0.82557  -10.87758
       O    16.90702    1.69254  -10.75507
      H1    16.02091    1.41036  -10.51469
       H    17.05761    2.74783  -17.67569
       O    16.86916    2.79293  -16.71911
      H1    16.13929    2.21463  -16.65722
       H    12.10191    1.60243  -13.42165
       O    12.54649    2.40337  -13.15585
      H1    13.28112    2.13461  -12.62103
       H    17.89479   -2.93913  -15.03798
       O    18.10850   -3.87080  -14.75327
      H1    17.59875   -4.49640  -15.30405
       H    13.09148    1.51720  -17.42595
       O    12.96011    1.80672  -16.53528
      H1    12.00870    1.64978  -16.44677
       H    17.41428   -3.38335  -17.49303
       O    18.26272   -3.68023  -17.83193
      H1    18.71665   -2.84372  -17.98830
       H    16.47708   -3.42499  -13.94930
       O    15.67928   -3.09625  -13.53229
      H1    15.89881   -3.26058  -12.62008
       H    17.15760    4.20297  -13.16852
       O    16.92806    5.08249  -12.85320
      H1    17.39145    5.21972  -12.03591
       H    19.20350    4.86359  -15.53437
       O    19.29488    4.03914  -16.01625
      H1    18.39804    3.68969  -16.05541
       H    13.92247   -3.15952  -13.36170
       O    12.97445   -3.43812  -13.37775
      H1    12.99579   -4.39567  -13.47063
       H    14.94729   -2.12668  -11.15822
       O    15.66745   -2.65561  -10.78933
      H1    16.45191   -2.10033  -10.88812
       H    14.60534   -5.22747  -16.26719
       O    15.46833   -4.86252  -16.53095
      H1    15.95441   -5.59186  -16.92130
       H    16.93556   -1.30697  -13.73111
       O    17.71134   -0.87696  -14.05631
      H1    17.48304   -0.57866  -14.92502
       H    12.46718   -0.84801  -14.34701
       O    11.60660   -1.26150  -14.17782
      H1    11.91284   -2.07358  -13.75907
       H    16.86379    1.90041  -12.77053
       O    16.85835    2.44392  -13.55071
      H1    16.36053    1.86557  -14.14993
       H    19.05412   -4.36279  -11.51358
       O    18.37447   -4.65677  -12.14239
      H1    18.46839   -4.13060  -12.92754
       H    18.37121   -0.96011  -12.16818
       O    17.95213   -0.90317  -11.32243
      H1    18.64494   -0.76013  -10.70599
       H    13.62588   -2.20149  -16.82453
       O    14.57435   -2.28348  -16.63077
      H1    14.64085   -3.18873  -16.31184
       H    17.76991   -0.15737  -17.45413
       O    17.22396   -0.67652  -16.84087
      H1    16.36164   -0.75626  -17.26033
       H    14.20901    1.13863  -15.62146
       O    14.92723    0.75514  -15.08616
      H1    14.93491   -0.17623  -15.27408

