60
frame 3 | Written by MDAnalysis XYZWriter (release 2.4.3)
       H    -6.01874    3.91188  -18.49432
       O    -5.16295    3.96057  -18.12764
      H1    -4.61161    4.21214  -18.85461
       H    -8.82512    3.81890  -12.81382
       O    -8.45557    4.14894  -12.00224
      H1    -7.75955    3.50344  -11.80097
       H    -4.32368    2.65473  -15.74532
       O    -3.64272    2.09606  -16.16097
      H1    -3.06139    2.79695  -16.50532
       H    -7.69729   -0.62212  -12.68575
       O    -7.72956    0.27876  -13.06690
      H1    -8.68327    0.41004  -13.03965
       H   -10.88630    1.24535  -12.93229
       O   -10.51093    0.34803  -12.69021
      H1   -11.22826   -0.23758  -12.91729
       H    -3.98264    1.33677  -17.86550
       O    -4.29531    1.49698  -18.76902
      H1    -4.89798    2.23233  -18.70931
       H    -7.10685    1.54094  -12.11942
       O    -6.67209    2.17898  -11.53259
      H1    -7.02801    1.97487  -10.66050
       H    -7.46891    1.60288  -16.55621
       O    -6.94313    1.80024  -15.77862
      H1    -6.74526    2.74346  -15.91618
       H    -6.49707   -1.19698  -16.22125
       O    -6.94867   -1.33385  -15.38433
      H1    -6.90938   -0.46948  -14.95520
       H   -10.49400    5.17553  -16.44292
       O   -10.05237    4.95946  -15.59328
      H1   -10.63257    5.39398  -14.93941
       H    -9.30624    1.31790  -17.49394
       O    -8.50039    1.60767  -17.98306
      H1    -8.49295    1.08025  -18.80521
       H    -5.15260    0.90621  -12.32292
       O    -4.23410    0.80514  -12.59006
      H1    -4.15769   -0.13647  -12.74659
       H    -6.70653    6.47766  -13.19920
       O    -7.64738    6.39801  -13.37843
      H1    -7.94997    5.69302  -12.77417
       H    -5.67334    4.08380  -14.34874
       O    -4.95148    3.80940  -13.73159
      H1    -5.42874    3.10193  -13.20410
       H    -8.79977   -1.45825  -15.18258
       O    -9.70206   -1.40672  -15.50384
      H1    -9.78027   -1.89247  -16.33156
       H    -9.94518    1.45396  -15.35474
       O   -10.33982    1.07000  -16.14608
      H1   -10.11662    0.11259  -16.07475
       H    -3.84568   -1.06443  -15.58638
       O    -3.81967   -0.55562  -16.40397
      H1    -3.95094    0.34537  -16.05826
       H    -3.16339    4.13282  -13.68394
       O    -2.36112    4.69474  -13.56917
      H1    -2.25649    5.07087  -14.44431
       H    -6.06226    4.71029  -16.34679
       O    -6.72962    4.42994  -15.70103
      H1    -7.58242    4.80847  -15.96521
       H    -9.38461    3.42255  -14.87019
       O    -9.14996    2.70435  -14.25434
      H1    -8.37365    2.32335  -14.65354

