60
frame 2 | Written by MDAnalysis XYZWriter (release 2.4.3)
       H   -13.53169   -2.66647   -5.01606
       O   -13.80218   -2.91885   -5.89211
      H1   -14.58716   -2.41755   -6.08838
       H   -10.64491   -5.92129   -4.28205
       O   -11.39107   -5.34201   -4.55422
      H1   -11.98713   -5.45377   -3.81114
       H   -13.25894   -7.94737   -5.38646
       O   -13.46427   -7.00272   -5.41560
      H1   -12.63693   -6.52913   -5.47379
       H   -13.35319   -0.96261   -9.22410
       O   -13.59830   -0.32009   -8.57811
      H1   -14.47084   -0.08930   -8.91212
       H   -10.87634   -3.10439   -7.65538
       O   -10.07750   -2.63739   -7.92288
      H1    -9.37010   -3.29633   -7.78356
       H   -11.42241   -1.57460  -10.58449
       O   -11.85502   -2.25757  -10.02507
      H1   -11.19404   -2.48542   -9.37397
       H    -8.99732   -5.44049  -10.00193
       O    -8.39537   -4.85844  -10.50913
      H1    -8.00251   -5.57155  -11.04427
       H   -13.43747   -0.98852   -3.33077
       O   -13.35436   -1.94900   -3.36982
      H1   -12.40979   -2.09209   -3.56160
       H   -12.75519   -3.81802   -7.09748
       O   -12.15773   -4.38412   -7.55900
      H1   -12.57970   -4.51603   -8.41236
       H   -14.00305   -5.02175  -10.34670
       O   -14.13111   -4.29794   -9.72737
      H1   -13.60016   -3.65092  -10.18369
       H   -10.02068   -0.66090   -6.58699
       O   -10.48229   -0.43885   -5.79214
      H1   -10.63647   -1.28298   -5.38483
       H   -14.08202   -7.51393   -9.93368
       O   -13.89007   -8.33818  -10.38251
      H1   -13.10370   -8.12539  -10.88836
       H   -14.87129   -5.75817   -8.73056
       O   -15.00194   -6.50591   -8.11319
      H1   -14.17788   -6.52058   -7.58963
       H   -11.08185   -3.41600  -11.09480
       O   -10.80234   -4.09851  -11.70982
      H1    -9.92113   -4.30262  -11.40452
       H   -10.72267   -7.34738   -9.13377
       O   -10.18973   -7.16500   -9.90383
      H1   -10.86519   -7.01965  -10.57663
       H   -16.15834   -1.85284   -6.81774
       O   -16.31175   -2.62096   -7.35803
      H1   -15.95430   -2.43309   -8.24380
       H   -15.81990   -4.83269   -6.42168
       O   -15.96401   -5.20018   -5.54320
      H1   -15.16982   -5.66430   -5.30512
       H   -10.58897   -3.40221   -4.19575
       O   -10.70401   -2.49517   -3.88586
      H1   -10.82974   -2.61932   -2.93652
       H   -12.11782   -5.41513  -11.94436
       O   -12.48316   -6.21546  -11.54813
      H1   -13.19502   -6.39118  -12.16489
       H   -11.49278   -7.52828   -7.94443
       O   -12.09729   -6.82392   -8.19048
      H1   -11.88105   -6.07343   -7.60300

