60
frame 3 | Written by MDAnalysis XYZWriter (release 2.4.3)
       H     1.55781   -5.75569   12.28707
       O     0.92864   -5.04816   12.01239
      H1     1.51520   -4.60143   11.35593
       H     4.05717   -7.09055   15.70917
       O     4.80149   -7.55253   15.27002
      H1     5.56025   -7.43618   15.82963
       H     2.14489   -7.86822   13.58399
       O     2.33995   -7.06929   13.06723
      H1     3.30732   -7.04644   13.05820
       H     4.55144  -10.27702   12.73815
       O     4.71023   -9.41933   12.29750
      H1     5.44651   -9.59735   11.67605
       H     1.88839   -7.21665   16.66773
       O     2.52030   -6.51839   16.42348
      H1     1.96788   -5.73456   16.53741
       H     7.33066   -3.00324   11.50406
       O     8.12990   -3.53521   11.65768
      H1     7.81037   -4.40168   11.83467
       H     3.34446   -2.34508   11.64896
       O     3.86476   -1.56556   11.97639
      H1     3.45048   -0.83454   11.53216
       H     5.27309   -7.07415   13.43496
       O     5.17441   -6.41445   12.72334
      H1     5.45900   -5.61855   13.22188
       H     1.70940   -4.39980   13.63810
       O     2.10958   -3.73484   14.17415
      H1     2.01812   -4.06968   15.06966
       H     6.03119   -9.04167    9.30978
       O     6.28108   -9.47390   10.11264
      H1     7.16142   -9.09719   10.32331
       H     7.26155  -11.22073   12.52584
       O     8.02690  -10.62600   12.52729
      H1     7.98071  -10.18280   13.34755
       H     3.14152   -9.16095   11.30655
       O     2.49490   -9.20870   10.60025
      H1     1.91588   -8.46884   10.78244
       H     4.96601   -3.28300   13.54205
       O     5.66494   -3.89547   13.79499
      H1     6.43242   -3.29944   13.76002
       H     7.52916   -6.13839   10.42748
       O     7.69197   -6.45412   11.31772
      H1     6.89447   -6.26471   11.81521
       H     4.88269   -2.23445   16.20994
       O     5.13256   -3.11635   16.59215
      H1     5.29539   -3.71169   15.86030
       H     5.02548   -5.60937   10.65957
       O     5.27663   -4.83450   10.18325
      H1     5.37572   -5.12563    9.26268
       H     3.60736   -3.95936   10.67428
       O     2.69933   -3.58801   10.71485
      H1     2.51728   -3.46635    9.77494
       H     8.60640   -8.03247   10.95477
       O     8.94251   -8.89442   10.62163
      H1     8.85248   -9.46778   11.39458
       H     7.23322   -9.40902   15.11547
       O     8.06195   -9.25379   14.67638
      H1     8.77832   -9.63622   15.18638
       H     8.14851   -6.81410   15.23486
       O     7.44454   -6.68915   15.87016
      H1     7.83865   -7.02226   16.68432

