60
frame 2 | Written by MDAnalysis XYZWriter (release 2.4.3)
       H   -17.92724   -2.98587   -9.84407
       O   -18.73109   -3.24298   -9.33490
      H1   -18.35257   -3.31671   -8.43625
       H   -18.09641   -5.87197  -13.65254
       O   -17.30507   -6.31523  -13.30955
      H1   -17.60812   -7.22958  -13.41987
       H   -15.72052   -8.31307  -11.45908
       O   -15.92011   -9.19106  -11.85122
      H1   -15.07135   -9.65515  -11.74672
       H   -16.86520   -5.10807  -10.45504
       O   -16.28651   -5.37394  -11.15623
      H1   -16.89095   -5.55035  -11.89332
       H   -17.69305   -8.60926  -10.74396
       O   -18.52061   -8.07793  -10.69176
      H1   -18.33816   -7.35280  -10.07242
       H   -12.75519   -3.81802   -7.09748
       O   -12.15773   -4.38412   -7.55900
      H1   -12.57970   -4.51603   -8.41236
       H   -14.96469   -8.76657   -8.50149
       O   -15.60411   -9.22979   -7.98618
      H1   -15.58005  -10.12594   -8.35181
       H   -14.00305   -5.02175  -10.34670
       O   -14.13111   -4.29794   -9.72737
      H1   -13.60016   -3.65092  -10.18369
       H   -13.24675   -2.32584  -13.87130
       O   -13.76976   -2.49626  -13.06851
      H1   -14.37310   -3.22823  -13.27453
       H   -14.08202   -7.51393   -9.93368
       O   -13.89007   -8.33818  -10.38251
      H1   -13.10370   -8.12539  -10.88836
       H   -14.87129   -5.75817   -8.73056
       O   -15.00194   -6.50591   -8.11319
      H1   -14.17788   -6.52058   -7.58963
       H   -15.36658   -6.25693  -13.31247
       O   -14.56193   -6.76069  -13.49342
      H1   -14.84811   -7.64552  -13.74939
       H   -18.26334   -6.24578   -7.57870
       O   -17.82259   -6.45169   -8.44080
      H1   -16.89241   -6.62521   -8.19827
       H   -16.15834   -1.85284   -6.81774
       O   -16.31175   -2.62096   -7.35803
      H1   -15.95430   -2.43309   -8.24380
       H   -16.27843   -4.98869  -13.82570
       O   -15.90442   -4.08180  -13.94550
      H1   -15.67983   -3.96286  -14.87559
       H   -15.81990   -4.83269   -6.42168
       O   -15.96401   -5.20018   -5.54320
      H1   -15.16982   -5.66430   -5.30512
       H   -15.74694   -2.77278  -10.30761
       O   -16.39716   -2.11760  -10.04299
      H1   -16.81650   -1.88597  -10.89294
       H   -12.11782   -5.41513  -11.94436
       O   -12.48316   -6.21546  -11.54813
      H1   -13.19502   -6.39118  -12.16489
       H   -16.06296   -9.72919  -14.95222
       O   -16.18336   -8.87981  -14.47144
      H1   -16.08389   -9.15385  -13.54874
       H   -16.86934   -2.52832  -13.31051
       O   -17.32554   -2.03729  -12.64997
      H1   -18.08427   -1.70541  -13.13241

