60
frame 0 | Written by MDAnalysis XYZWriter (release 2.4.3)
       H     5.58110   11.40431  -11.81458
       O     4.88195   12.03274  -11.98186
      H1     4.38945   11.53743  -12.63691
       H     2.72320    7.26190   -5.02108
       O     3.15729    6.63960   -5.62502
      H1     4.03266    6.48555   -5.20713
       H     7.70767    7.48913   -4.87216
       O     8.57724    7.24982   -4.56858
      H1     8.35972    6.82443   -3.73137
       H     8.53094    7.04061   -9.19087
       O     9.37363    6.67841   -9.31073
      H1     9.37641    6.09586   -8.51649
       H     5.17033    5.69874  -10.40908
       O     5.33481    5.86176   -9.45973
      H1     5.72153    5.04001   -9.13527
       H     8.41077    9.80145   -7.86782
       O     8.34062    9.57478   -6.94413
      H1     7.49683    9.14058   -6.86086
       H     1.54720    8.31359   -9.70476
       O     2.40131    8.74792   -9.75288
      H1     2.88627    8.28064   -9.08332
       H     9.58686   10.89342   -9.97004
       O     8.70980   11.12176   -9.61894
      H1     8.14209   10.91738  -10.35792
       H     4.29740   12.77290   -3.61827
       O     4.04578   11.85304   -3.42639
      H1     3.74967   11.56930   -4.28901
       H     3.66330   11.48559  -10.31430
       O     2.80300   11.44639   -9.87304
      H1     2.52026   10.53582   -9.83328
       H     5.60147    9.11701   -6.09909
       O     6.09467    8.27715   -6.14749
      H1     5.54451    7.69710   -6.69139
       H     3.01499   10.37555   -6.70014
       O     3.48826   10.16664   -5.86150
      H1     2.85512    9.60360   -5.37161
       H     1.97319   12.56168   -6.90703
       O     1.64132   11.76722   -7.35763
      H1     2.09395   11.77874   -8.21174
       H     6.64074    9.24033  -10.82802
       O     6.83469   10.07432  -11.32364
      H1     7.16261    9.69978  -12.16215
       H     6.26763    8.69425   -9.11435
       O     6.93997    8.07952   -9.44102
      H1     6.46613    7.26185   -9.64202
       H     3.24071    8.12757  -11.53601
       O     3.28813    7.34238  -12.08037
      H1     2.81188    7.55762  -12.89119
       H     5.69846    8.05160   -4.44506
       O     5.74471    7.70436   -3.54495
      H1     5.19723    8.35835   -3.06203
       H     7.00636   12.58521   -7.18181
       O     6.37789   11.94258   -6.84827
      H1     6.59899   11.94407   -5.90456
       H     5.63330   10.46364   -7.96798
       O     5.08270    9.84096   -8.47672
      H1     4.80747    9.08681   -7.91790
       H     4.48127    6.75588   -8.38105
       O     3.87936    7.39536   -7.96509
      H1     3.66616    6.95811   -7.13342

