60
frame 2 | Written by MDAnalysis XYZWriter (release 2.4.3)
       H     2.82685   -2.17868    0.16286
       O     3.03501   -2.33052    1.09081
      H1     2.76859   -1.47419    1.48450
       H     2.26957    0.71579    0.68636
       O     2.31796    0.98045   -0.23727
      H1     1.43096    0.86080   -0.58752
       H     4.29119   -2.79149   -1.77774
       O     3.59219   -2.11116   -1.79571
      H1     4.04121   -1.37315   -1.32518
       H     5.50668   -1.24947   -4.18722
       O     5.44174   -1.99196   -4.77163
      H1     5.87549   -1.73296   -5.61431
       H     5.63936    1.06238   -4.14993
       O     6.20459    0.33874   -3.80618
      H1     6.59280    0.77830   -3.04240
       H     4.17781    5.67726   -1.59592
       O     4.31926    6.48313   -1.05561
      H1     5.13480    6.86176   -1.42558
       H    -0.92929    1.96748   -0.98687
       O    -1.42809    2.74710   -1.34794
      H1    -1.92529    3.04676   -0.57861
       H     1.42227    2.41562   -4.95122
       O     0.52157    2.74021   -4.86357
      H1     0.29389    2.94100   -5.78486
       H     3.09523    3.41360    2.76356
       O     3.80142    2.84879    3.15474
      H1     4.31482    3.53605    3.61098
       H     0.69348    4.88887   -2.25915
       O     1.16226    4.87533   -3.09005
      H1     0.68975    4.23974   -3.62778
       H     3.06070    0.22582    3.03682
       O     2.35307   -0.12907    2.48985
      H1     1.61277   -0.25090    3.09648
       H     0.93998    3.54433    0.86097
       O     1.57540    3.75738    0.18814
      H1     1.83688    2.91419   -0.14494
       H     6.30254    2.55061    1.48008
       O     5.60460    2.95746    0.96097
      H1     4.84377    2.97488    1.54205
       H     4.93761    2.51230   -0.68219
       O     4.62336    1.88945   -1.36156
      H1     3.74120    1.67415   -1.02669
       H     5.71812    4.14439   -2.71504
       O     4.74874    4.16545   -2.88132
      H1     4.44568    3.35028   -2.46041
       H     2.85924   -1.57710   -4.96526
       O     2.53413   -1.29426   -4.06581
      H1     3.25882   -1.47347   -3.46140
       H     7.64599    2.14569   -1.15563
       O     7.56807    1.60551   -1.94595
      H1     8.33872    1.05379   -1.96983
       H    -1.00385    0.08965   -0.35733
       O    -0.30010   -0.05723   -0.96000
      H1    -0.68022   -0.62586   -1.63001
       H     6.46118   -0.57698   -0.55412
       O     5.52860   -0.49832   -0.21382
      H1     5.34306    0.35466   -0.62376
       H     2.71800    0.51038   -4.01975
       O     2.91194    1.43705   -4.28069
      H1     3.75112    1.39873   -4.81911

