60
frame 0 | Written by MDAnalysis XYZWriter (release 2.4.3)
       H     1.81237   -7.17837   -1.94080
       O     1.69827   -7.70015   -2.73345
      H1     1.62157   -7.06856   -3.45490
       H    -1.15064   -7.80208   -2.19133
       O    -0.93441   -7.81773   -3.14873
      H1     0.03395   -7.60114   -3.18203
       H     1.61240   -3.79058    2.57958
       O     1.37400   -3.86424    3.51961
      H1     1.75885   -3.06835    3.90849
       H     4.66492   -2.29227   -4.13789
       O     4.08890   -3.00815   -3.84827
      H1     3.93872   -3.44913   -4.68114
       H     3.60016   -5.28572   -1.63750
       O     4.37149   -5.17209   -2.21049
      H1     4.13759   -4.44932   -2.81193
       H     1.45852   -4.86339   -1.47097
       O     2.06833   -5.47822   -1.04839
      H1     2.13559   -5.08159   -0.14982
       H    -2.25550   -9.10329   -0.42238
       O    -1.53356   -8.47283   -0.56300
      H1    -1.81843   -7.68169   -0.08500
       H     7.38007   -5.83681   -1.77386
       O     7.01965   -5.11512   -1.23770
      H1     6.05229   -5.30541   -1.27239
       H    -2.67175   -3.05548   -0.74131
       O    -1.76247   -3.40884   -0.52729
      H1    -1.93486   -4.25148   -0.08337
       H     1.33067   -2.89258    1.01005
       O     2.14464   -3.42330    0.95408
      H1     2.86303   -2.79379    0.83572
       H     4.36917   -8.67456   -1.09057
       O     3.91313   -9.08448   -1.81801
      H1     3.14638   -8.53838   -1.95452
       H    -1.51206   -6.49475   -3.97102
       O    -1.66282   -5.63763   -4.37051
      H1    -1.11534   -5.06864   -3.83236
       H     0.76557   -7.43381    1.65521
       O     0.76915   -6.55351    2.02319
      H1     0.89679   -6.69109    2.95874
       H    -0.46311   -2.72468    2.76401
       O    -0.33633   -2.29253    1.92543
      H1    -0.87954   -2.78006    1.28295
       H     4.04591   -6.68021   -3.29639
       O     4.06608   -7.09222   -4.19303
      H1     3.56284   -7.93126   -4.09340
       H     3.99581   -6.29319    2.34889
       O     3.39366   -6.61859    1.65646
      H1     2.50553   -6.38715    1.99946
       H    -2.37539   -5.82480    1.29919
       O    -1.58140   -5.95629    0.77359
      H1    -0.90193   -6.16634    1.42005
       H     0.33074   -3.55515   -2.64031
       O    -0.17081   -4.35762   -2.43186
      H1    -0.73203   -4.12240   -1.65794
       H     1.96914   -4.55651   -5.72481
       O     2.88165   -4.72200   -5.48592
      H1     2.81158   -5.64947   -5.20012
       H     2.52142   -2.55106   -2.99679
       O     1.77819   -2.31223   -2.40972
      H1     2.20301   -1.69771   -1.78989

