60
frame 0 | Written by MDAnalysis XYZWriter (release 2.4.3)
       H     3.26606  -13.90008  -16.05622
       O     3.72325  -14.39377  -16.73057
      H1     3.46645  -15.28080  -16.54333
       H    -7.12051  -18.28812  -15.20791
       O    -7.26915  -17.37979  -15.49400
      H1    -6.45325  -16.89447  -15.42952
       H     1.20140  -15.33646  -13.85646
       O     1.31153  -16.05943  -13.21281
      H1     0.41235  -16.29053  -12.93544
       H     0.28946  -14.14489  -18.38807
       O    -0.37210  -13.43751  -18.38498
      H1     0.08496  -12.73683  -18.89768
       H    -2.01299  -16.20927  -17.73921
       O    -2.46632  -16.78117  -17.08986
      H1    -2.78230  -17.50081  -17.64366
       H    -6.08357  -17.88909  -17.86367
       O    -5.15456  -17.69462  -17.57374
      H1    -5.31371  -16.89694  -17.02591
       H    -0.92398  -11.36468  -13.80255
       O    -1.59341  -10.91249  -14.37783
      H1    -1.66836  -11.49153  -15.16414
       H    -1.24430  -16.78237  -11.73659
       O    -1.08628  -16.52368  -12.65244
      H1    -1.14873  -17.29225  -13.20787
       H     1.03277  -16.30305  -17.15728
       O     1.24685  -15.73124  -17.87246
      H1     0.99904  -16.23101  -18.69749
       H     1.40243  -18.09564  -14.10123
       O     1.87713  -18.92157  -14.27028
      H1     2.66911  -18.80506  -13.73855
       H    -5.81718  -16.38906  -12.65557
       O    -4.89443  -16.20179  -12.88687
      H1    -4.50348  -17.09849  -12.99374
       H    -1.93545  -15.17049  -13.92209
       O    -2.28975  -14.81989  -14.77190
      H1    -2.50191  -15.64086  -15.22464
       H    -1.46823  -12.72909  -16.99522
       O    -2.14540  -12.60081  -16.30122
      H1    -2.24348  -13.44262  -15.82394
       H    -5.28421  -15.52459  -14.77228
       O    -5.43151  -15.44637  -15.73799
      H1    -5.08062  -14.56347  -15.98248
       H     3.00625  -17.69670  -15.27590
       O     3.17400  -16.73726  -15.26932
      H1     3.69331  -16.60831  -14.48119
       H    -2.55615  -18.42586  -12.36491
       O    -3.32923  -18.33556  -12.94830
      H1    -3.02483  -18.78232  -13.73866
       H     1.00126  -13.30874  -14.45915
       O     1.46624  -13.34423  -15.27183
      H1     0.80979  -13.56593  -15.93215
       H    -3.78610  -13.11008  -18.91367
       O    -3.79577  -12.19640  -18.58361
      H1    -3.47243  -12.28427  -17.66727
       H    -1.63108  -17.66925  -15.54260
       O    -0.94191  -17.98900  -14.94500
      H1    -0.59544  -18.79850  -15.33117
       H    -6.77446  -13.14013  -16.89996
       O    -5.85316  -12.90105  -16.75409
      H1    -5.54033  -12.71200  -17.66910

