60
frame 3 | Written by MDAnalysis XYZWriter (release 2.4.3)
       H    15.70812  -16.29840    1.19435
       O    16.07579  -16.85470    1.89083
      H1    16.90096  -16.48136    2.16990
       H     6.89792  -15.68314    3.56146
       O     7.26454  -16.42984    4.03110
      H1     7.92408  -15.96751    4.54351
       H    11.99354  -17.38644    2.96963
       O    11.57308  -17.41817    2.08049
      H1    10.86844  -18.06824    2.17377
       H    13.75264  -17.19644   -1.92837
       O    14.45619  -16.80696   -2.46261
      H1    15.04304  -17.54790   -2.55298
       H     8.38239  -15.21893   -0.63525
       O     7.83796  -15.88521   -0.17691
      H1     6.92883  -15.65654   -0.34145
       H    12.21159  -17.60835    0.18621
       O    12.66823  -17.77959   -0.62614
      H1    12.14004  -18.51866   -0.99487
       H     5.76813  -16.57218   -1.49021
       O     5.57135  -17.45691   -1.71649
      H1     6.41327  -17.87507   -1.45298
       H    13.18371  -15.92655    1.81095
       O    13.34472  -14.97544    1.68008
      H1    13.45181  -14.62143    2.55899
       H     8.70534  -19.11231   -1.53186
       O     8.21659  -18.57854   -0.88984
      H1     8.33837  -17.67143   -1.17572
       H     9.25973  -16.08635    7.05126
       O     9.46480  -16.84982    6.49213
      H1     8.63717  -17.34382    6.46082
       H    11.53499  -17.19574    8.19476
       O    12.01673  -17.72358    7.54766
      H1    12.07637  -17.13983    6.77898
       H    10.57251  -14.26535   -0.84925
       O     9.83947  -14.51671   -1.44384
      H1    10.23314  -15.15478   -2.03720
       H     8.54428  -15.47811    1.87669
       O     9.28990  -15.23694    2.44014
      H1     9.92956  -15.98395    2.39329
       H    10.25992  -14.25295    1.57545
       O    10.89582  -13.62057    1.16874
      H1    11.72389  -14.03987    1.30120
       H    10.68523  -15.20511    4.79672
       O    10.79827  -14.26380    4.51607
      H1    10.02505  -14.19988    3.94059
       H     6.94879  -18.20532    0.98036
       O     6.20695  -18.56831    1.48628
      H1     6.58687  -19.24541    2.03499
       H     8.44620  -18.04433    3.17381
       O     9.29033  -18.45975    3.40928
      H1     9.31581  -19.16913    2.75648
       H    12.87313  -17.04324    4.61797
       O    11.93960  -16.74640    4.67105
      H1    11.52587  -17.58291    4.85499
       H    14.93313  -18.52763    3.90785
       O    14.62763  -17.60766    3.99811
      H1    15.01379  -17.18563    3.20083
       H    12.54835  -13.80866    4.39662
       O    13.52243  -13.88778    4.39430
      H1    13.68828  -14.26888    5.26184

