60
frame 5 | Written by MDAnalysis XYZWriter (release 2.4.3)
       H   -10.53311  -18.92528    5.44807
       O    -9.70074  -18.82650    5.04251
      H1    -9.25936  -19.67216    5.11819
       H   -15.47486  -18.19609   11.46935
       O   -15.50467  -17.73069   12.33119
      H1   -14.59311  -17.85043   12.55581
       H   -10.65863  -14.85166    8.39129
       O    -9.79133  -15.27348    8.73215
      H1   -10.14123  -16.18096    8.90215
       H   -14.91288  -13.67666    9.24379
       O   -15.75343  -14.17659    9.29477
      H1   -15.83495  -14.55105   10.22599
       H   -12.25942  -17.20080   11.48390
       O   -12.72817  -17.19734   12.38907
      H1   -12.62608  -16.32308   12.79009
       H    -9.46160  -16.22173    4.23598
       O    -9.44307  -15.54658    4.95762
      H1   -10.44608  -15.62991    5.22094
       H    -7.27247  -18.53879    9.94028
       O    -8.15680  -18.33475    9.58861
      H1    -7.86775  -18.25223    8.64230
       H   -13.11667  -18.04681    7.33648
       O   -13.39308  -17.53223    8.05663
      H1   -14.05336  -18.02573    8.56250
       H    -8.42784  -17.99566    6.42116
       O    -7.56233  -17.99876    6.85880
      H1    -7.34854  -17.04053    7.06031
       H   -10.39996  -14.57104   10.29846
       O   -10.87703  -13.98466   10.89132
      H1   -10.86737  -14.43009   11.73657
       H   -16.15594  -18.96076    9.32353
       O   -15.28146  -18.80178    9.75622
      H1   -14.93453  -19.70269    9.95923
       H   -14.51736  -16.20962    7.64213
       O   -15.26037  -15.68424    7.21122
      H1   -15.57335  -15.09291    7.96597
       H    -7.88940  -15.29181    8.08826
       O    -6.96871  -15.41252    7.68692
      H1    -6.42869  -15.82460    8.36289
       H   -16.88310  -18.28894    6.06489
       O   -16.71821  -17.40305    5.77561
      H1   -16.09421  -16.98376    6.40060
       H   -11.77135  -12.96021    7.91317
       O   -11.18852  -13.36834    7.28922
      H1   -11.77097  -13.89178    6.67131
       H   -13.73665  -13.91824    5.15157
       O   -13.32834  -14.53139    5.75342
      H1   -14.05418  -14.85588    6.26223
       H   -10.66065  -18.05924    9.69632
       O   -11.27328  -17.32347    9.69735
      H1   -11.96970  -17.48453    9.06743
       H   -11.93523  -19.47256   14.92382
       O   -11.60068  -19.46670   14.05346
      H1   -12.06865  -18.72694   13.64310
       H   -13.17323  -17.11533    3.71301
       O   -12.37894  -16.65084    3.86671
      H1   -12.72267  -16.07706    4.56483
       H   -16.94781  -14.98335   12.38054
       O   -16.11337  -15.08046   11.95150
      H1   -15.88134  -16.04890   11.98129

