60
frame 3 | Written by MDAnalysis XYZWriter (release 2.4.3)
       H     6.39761   -6.44169    4.16411
       O     6.09644   -7.17255    3.65071
      H1     6.11334   -6.74266    2.78581
       H     1.82546  -10.17719    2.47376
       O     2.21453  -11.06840    2.32735
      H1     1.75912  -11.55899    3.01844
       H    -0.30778   -6.34020    6.90279
       O    -0.35800   -7.29239    6.76627
      H1     0.33305   -7.43345    6.09760
       H    -0.85852   -3.87615    4.39905
       O    -1.54476   -4.27198    4.98766
      H1    -1.14885   -4.26650    5.85527
       H     3.63109   -3.18377    3.86739
       O     2.73187   -3.52933    3.91071
      H1     2.85953   -4.48578    3.77411
       H     4.01836   -6.72344    4.05467
       O     3.23207   -6.38842    3.56608
      H1     3.13741   -6.96645    2.80419
       H     2.46951   -7.36208    6.90409
       O     2.72873   -6.79819    7.63510
      H1     2.28096   -7.15394    8.42253
       H    -2.31031   -5.79924    4.21085
       O    -2.78381   -6.43682    3.66695
      H1    -3.54168   -5.91886    3.37186
       H     1.29987   -8.62149    4.34007
       O     1.63491   -7.95007    4.91743
      H1     1.98777   -7.31690    4.32114
       H     2.88573   -9.60074    5.86249
       O     3.80157   -9.62983    6.18304
      H1     3.96479  -10.52211    6.52313
       H     0.26503   -1.90885    3.79848
       O     0.17406   -2.70224    3.26022
      H1     1.05247   -3.10397    3.25035
       H     4.96610   -5.02971    6.91366
       O     4.22945   -4.74558    7.43670
      H1     3.78136   -5.58908    7.58659
       H     1.24413   -4.58731   -0.32846
       O     1.88743   -5.12568    0.14421
      H1     2.52285   -4.44866    0.41315
       H     0.21198   -8.25698    2.19008
       O     0.35471   -9.21970    2.29327
      H1    -0.19774   -9.55731    1.59471
       H     5.49537   -8.54865    6.99749
       O     6.14097   -8.10198    7.55377
      H1     7.00662   -8.46439    7.28810
       H     4.08880  -10.63577    3.13087
       O     4.87079  -10.64847    3.70044
      H1     4.57697  -10.15371    4.49679
       H     4.29863   -7.36767    1.31146
       O     3.54701   -7.98079    1.38937
      H1     3.07972   -7.97209    0.54168
       H     4.64847   -9.88633    1.48156
       O     5.09824  -10.32037    0.74904
      H1     5.54466   -9.54332    0.32627
       H    -0.43768   -5.72047    1.28651
       O     0.02219   -6.59216    1.35892
      H1     0.86489   -6.45244    0.86918
       H     0.52433  -10.47953    5.49369
       O     1.36961  -10.73004    5.07090
      H1     1.65823  -11.49480    5.53558

