60
frame 2 | Written by MDAnalysis XYZWriter (release 2.4.3)
       H    -5.87231  -17.75695    0.54709
       O    -5.29107  -18.52107    0.54549
      H1    -4.41134  -18.15660    0.42439
       H    -6.85636  -19.30485    2.34114
       O    -7.39643  -18.67239    2.83983
      H1    -7.98677  -18.33414    2.15103
       H    -3.46983  -15.31715    8.84941
       O    -4.39107  -15.59002    8.85805
      H1    -4.89820  -14.79222    9.13208
       H    -8.32305  -17.26842    5.66095
       O    -8.88517  -16.50030    5.68145
      H1    -8.39051  -15.84801    5.15104
       H    -2.18671  -16.31851    4.78108
       O    -1.49091  -15.86737    4.28670
      H1    -1.75543  -15.89096    3.38398
       H    -5.69463  -14.07387    5.82178
       O    -4.84892  -14.54667    5.93588
      H1    -4.84721  -14.75656    6.89238
       H    -2.50285  -18.56476    8.88738
       O    -1.93022  -17.77910    8.86014
      H1    -2.41151  -17.22915    8.23297
       H    -0.30589  -18.31458    3.63884
       O     0.48181  -17.72830    3.62929
      H1     0.15907  -16.89500    4.01473
       H    -1.75436  -14.11887    1.56046
       O    -2.09528  -15.02796    1.76417
      H1    -3.05013  -14.84399    1.87150
       H    -7.84094  -15.44246    8.51970
       O    -7.93775  -14.90420    7.68990
      H1    -8.43097  -15.49206    7.08663
       H    -6.34525  -13.63289    2.82181
       O    -6.45869  -13.11265    3.61484
      H1    -5.63316  -12.63389    3.69044
       H    -3.18215  -13.67084    5.64425
       O    -2.23725  -13.65005    5.53431
      H1    -2.04409  -14.45499    5.08026
       H   -10.07236  -18.89462    4.13361
       O   -10.54450  -18.07951    4.10932
      H1    -9.94793  -17.41135    4.47870
       H    -8.05761  -13.90348    4.02767
       O    -8.93503  -14.23000    4.32083
      H1    -9.07679  -13.83961    5.20777
       H    -8.07911  -16.54699    1.04458
       O    -7.27030  -16.25277    0.57013
      H1    -7.57915  -15.88585   -0.27693
       H    -4.72397  -16.07751    4.88314
       O    -4.67079  -16.78103    4.24370
      H1    -5.55409  -17.16340    4.23578
       H    -1.98875  -18.04896    5.94632
       O    -2.79817  -17.52863    6.08781
      H1    -3.31189  -17.71863    5.28181
       H    -4.51055  -14.19961    0.50960
       O    -4.48117  -13.74779   -0.36113
      H1    -5.07167  -13.00088   -0.20751
       H    -5.73499  -15.78474    1.44886
       O    -4.98096  -15.33575    1.84880
      H1    -4.77657  -15.97879    2.57154
       H   -10.05470  -17.17304    0.68298
       O    -9.55576  -17.28487    1.50771
      H1   -10.24800  -17.25580    2.19268

