60
frame 3 | Written by MDAnalysis XYZWriter (release 2.4.3)
       H     1.82546  -10.17719    2.47376
       O     2.21453  -11.06840    2.32735
      H1     1.75912  -11.55899    3.01844
       H     1.52926  -13.98392    4.53976
       O     1.82120  -13.29817    3.89868
      H1     2.79338  -13.33411    3.95969
       H     0.71479  -14.54479   -1.29203
       O    -0.11377  -14.06731   -1.24747
      H1    -0.35823  -13.92926   -2.18814
       H     4.05627  -18.18239   -0.79200
       O     3.22917  -18.68586   -0.79937
      H1     3.21974  -18.96304   -1.72334
       H     3.51917  -15.76803    6.26324
       O     2.66050  -16.19547    6.27519
      H1     2.30754  -16.14541    7.19520
       H    -3.42427  -16.64736    3.60657
       O    -2.62824  -16.15290    3.35815
      H1    -2.69761  -16.11031    2.40777
       H     0.67344  -18.48373    5.55481
       O     0.58884  -19.10837    6.26901
      H1     1.39567  -18.98100    6.78090
       H     5.06661  -13.82203    3.76427
       O     4.48562  -13.25321    4.31429
      H1     4.80214  -12.36391    4.06470
       H     6.52358  -13.92194    2.28050
       O     6.03073  -14.65591    2.56218
      H1     5.43272  -14.84566    1.82005
       H    -0.70389  -16.71537    3.68846
       O    -0.05340  -17.30829    4.01155
      H1     0.76225  -16.97879    3.60686
       H    -1.88681  -14.69313    1.09704
       O    -2.41720  -15.34128    0.62513
      H1    -3.30811  -15.00794    0.72142
       H    -0.04108  -13.56906    0.72895
       O     0.02269  -13.98709    1.59678
      H1    -0.26944  -13.31395    2.22755
       H    -0.64771  -17.02474    0.20693
       O     0.13646  -17.27113    0.65262
      H1    -0.09776  -18.19877    0.94129
       H     1.83158  -15.03589    2.71464
       O     2.00990  -15.89455    2.36758
      H1     1.24156  -16.03035    1.80105
       H     3.82120  -14.15195    0.38141
       O     4.06610  -15.03627    0.61272
      H1     3.37598  -15.27630    1.26381
       H     3.14687  -15.07512   -1.06475
       O     2.55075  -14.80595   -1.77355
      H1     2.25288  -15.65339   -2.05440
       H     1.76820  -17.31021   -3.25790
       O     1.30793  -16.97260   -2.47914
      H1     1.71895  -17.44763   -1.72728
       H     3.71547  -13.43063    5.94120
       O     3.39006  -13.06919    6.76073
      H1     4.18125  -12.97054    7.28921
       H     1.27060  -15.74885    5.58151
       O     0.51566  -15.14191    5.45175
      H1    -0.07156  -15.65589    4.89915
       H     4.08239  -17.63888    4.32605
       O     4.24202  -18.36332    3.71946
      H1     4.70808  -17.96460    2.98180

