60
frame 3 | Written by MDAnalysis XYZWriter (release 2.4.3)
       H     8.33116   -5.88475  -13.89132
       O     9.14410   -5.55062  -13.48114
      H1     9.78687   -6.25593  -13.58775
       H    11.62179   -4.74105  -10.22208
       O    10.87033   -4.15371  -10.17744
      H1    10.11906   -4.79548  -10.29980
       H     5.82693   -6.62391  -12.04363
       O     6.08347   -6.88391  -11.14335
      H1     6.73954   -7.56660  -11.31769
       H     4.92346   -6.53784  -15.08401
       O     4.80247   -6.41523  -16.05881
      H1     4.74453   -7.31343  -16.40941
       H    13.07022   -5.23422  -15.41092
       O    12.11545   -5.34231  -15.54160
      H1    11.74887   -4.62382  -14.98642
       H     7.29589   -7.44618  -16.67628
       O     7.85843   -7.26532  -15.89597
      H1     8.62572   -6.83643  -16.33986
       H    10.80068   -8.40689  -13.92276
       O    10.33595   -8.12500  -13.11905
      H1     9.44228   -8.47089  -13.24136
       H     8.54001   -2.02983  -12.24590
       O     8.32331   -2.52628  -13.03568
      H1     9.17960   -2.74583  -13.40864
       H     9.08890   -5.84790  -11.43892
       O     8.88800   -5.81792  -10.50032
      H1     7.99407   -5.45800  -10.46984
       H     5.73488   -3.94383  -14.53265
       O     5.40056   -3.48472  -15.29941
      H1     5.71816   -4.06655  -15.95907
       H     9.31169   -7.16094   -9.52640
       O     9.52233   -8.05323   -9.22318
      H1     8.82618   -8.56872   -9.68311
       H     4.43490   -7.80938  -13.19269
       O     4.42378   -6.86542  -13.34001
      H1     3.58836   -6.56230  -12.94122
       H     6.89710   -4.38342  -17.95061
       O     5.96833   -4.44937  -17.62319
      H1     5.88439   -5.31114  -17.18476
       H     8.85130   -1.67795  -16.22015
       O     8.66019   -2.61391  -15.95229
      H1     8.00017   -2.45744  -15.23884
       H    11.63659   -8.32034  -15.66423
       O    12.08468   -8.95447  -15.10804
      H1    12.94020   -8.48142  -14.89595
       H     9.94253   -2.97080  -15.06489
       O    10.55346   -3.26109  -14.38747
      H1    10.09296   -3.98084  -13.93393
       H    10.99318   -6.44114  -16.52876
       O    10.47590   -7.23170  -16.77061
      H1    10.94209   -7.51313  -17.58143
       H     8.67690   -8.95450  -15.84576
       O     8.61704   -9.89407  -16.03543
      H1     7.71896  -10.13505  -15.80528
       H     7.25550   -4.00015  -12.95503
       O     6.52578   -4.61424  -13.10651
      H1     5.93044   -4.55590  -12.33433
       H     7.31194   -8.28061  -13.96076
       O     7.70709   -8.67656  -13.15057
      H1     6.89860   -9.09225  -12.81198

