60
frame 2 | Written by MDAnalysis XYZWriter (release 2.4.3)
       H    14.22131    3.56635   13.10577
       O    13.77694    4.41236   13.19972
      H1    13.04975    4.26017   13.83590
       H    12.61913    0.30443    9.46705
       O    13.16118   -0.44962    9.74766
      H1    13.26974   -0.30212   10.69776
       H    15.04053   -0.24364    9.73047
       O    15.97278   -0.26432    9.52635
      H1    16.41037   -0.14135   10.38099
       H    17.79063    3.25309   11.73275
       O    17.11851    3.19678   11.03836
      H1    16.78498    4.10499   10.96980
       H    15.47008    1.35577   17.12379
       O    15.61364    1.92807   16.36366
      H1    15.85776    1.34504   15.65591
       H    18.42808    1.56280   15.68049
       O    18.92633    1.75525   16.49447
      H1    18.43851    2.47819   16.86027
       H    16.05652    3.98322   14.23900
       O    16.85489    4.51392   14.18873
      H1    17.49454    3.88527   13.79498
       H    16.05967   -1.78334   15.02096
       O    16.20475   -1.20592   15.80244
      H1    16.96437   -0.62622   15.53571
       H    18.14721   -0.49921   11.31021
       O    17.30138   -0.46027   11.83115
      H1    16.80093   -1.27090   11.60760
       H    15.05551    5.36333   10.42415
       O    15.79313    5.72214   10.93246
      H1    16.18206    6.31691   10.30093
       H    17.43953    0.21004   13.59200
       O    18.07413    0.35239   14.30649
      H1    18.61524   -0.46971   14.37311
       H    11.58141    7.14364   12.68324
       O    12.55113    7.14041   12.73717
      H1    12.71242    6.24571   12.39392
       H    15.77182    6.44253   13.02558
       O    15.63439    7.26516   13.47850
      H1    15.78974    7.01783   14.38845
       H    11.87001    2.40963   15.04055
       O    12.77179    2.04768   15.03875
      H1    12.65925    1.10718   15.17684
       H    15.95843    1.46041    8.58531
       O    15.91335    2.42156    8.63388
      H1    16.57935    2.58613    9.35111
       H    14.33105    3.32480    9.23963
       O    13.62070    3.84947    9.66451
      H1    13.24617    4.37663    8.95489
       H    16.12379    2.43096   12.21152
       O    15.67572    2.17762   13.05283
      H1    15.03502    1.49545   12.81186
       H    16.67998    3.52460   16.82173
       O    17.31891    4.27106   16.91865
      H1    17.40513    4.61101   16.00625
       H    12.33085    4.17220   11.02787
       O    11.49201    4.65116   11.22446
      H1    10.88901    3.91848   11.47692
       H    13.20656    0.82818   13.35940
       O    13.44410    0.18388   12.68045
      H1    13.57281   -0.63513   13.17752

