60
frame 2 | Written by MDAnalysis XYZWriter (release 2.4.3)
       H     3.75928   -0.42297  -17.91621
       O     3.12004   -0.35191  -17.21428
      H1     2.68134   -1.21600  -17.26137
       H     9.69872   -1.22398  -18.51572
       O     9.81089   -1.69501  -17.67754
      H1    10.43811   -1.13689  -17.19234
       H     4.60510    1.86016  -14.04904
       O     4.16253    2.05198  -13.20531
      H1     4.69775    2.78715  -12.84367
       H    12.17878    1.17976  -17.95431
       O    12.62999    1.97425  -18.20609
      H1    12.53064    2.57703  -17.45862
       H    10.83948    0.78786  -15.98937
       O    11.31093    0.04248  -16.39188
      H1    11.73340   -0.42512  -15.68563
       H     7.43029    0.86292  -17.81778
       O     6.72188    0.18341  -17.75600
      H1     7.16297   -0.52730  -17.23699
       H     8.46777    3.82613  -17.82074
       O     8.57013    2.87370  -17.89355
      H1     8.91016    2.69128  -18.80876
       H     6.76315    5.44530  -15.33649
       O     6.22038    4.80436  -14.86081
      H1     5.77221    4.39646  -15.62087
       H     5.02328    0.32728  -12.37364
       O     5.79791   -0.04065  -11.91176
      H1     6.20848    0.71579  -11.51458
       H     8.92204   -2.03363  -13.15802
       O     8.57393   -1.19019  -13.43546
      H1     7.84985   -1.05209  -12.85894
       H     4.75414   -4.19386  -16.87727
       O     3.84201   -4.07215  -17.07253
      H1     3.90118   -3.75312  -17.97439
       H     7.42114    3.03011  -14.36718
       O     8.04671    2.41952  -13.93870
      H1     7.66055    2.26940  -13.04857
       H     7.04751   -3.42679  -16.43841
       O     6.88516   -4.35731  -16.69029
      H1     7.16302   -4.45688  -17.59782
       H     6.41343    3.55252  -17.32704
       O     5.52555    3.44475  -16.97077
      H1     5.49299    2.53764  -16.65339
       H     8.14587   -1.66949  -16.59078
       O     7.39291   -1.71436  -15.99912
      H1     7.77565   -1.60839  -15.12254
       H     9.86395    2.95737  -16.61834
       O    10.29735    2.76385  -15.78516
      H1     9.60831    2.76149  -15.12427
       H     9.83234   -0.17054  -12.60845
       O    10.34426    0.43628  -12.03113
      H1    11.16576   -0.01441  -11.83701
       H    13.23796    3.95731  -16.01499
       O    12.50603    4.32640  -16.58396
      H1    11.76453    3.77704  -16.22292
       H     9.53153    5.44574  -17.66129
       O     8.72300    5.32546  -17.16486
      H1     8.99017    5.51196  -16.28150
       H     4.55135    0.31414  -15.58468
       O     5.16660    1.04136  -15.52334
      H1     6.02988    0.65421  -15.73379

