60
frame 3 | Written by MDAnalysis XYZWriter (release 2.4.3)
       H     3.42275    3.09717   18.11340
       O     4.17115    3.69517   18.08646
      H1     4.04079    4.26379   18.87280
       H     2.25193    0.54611   14.93032
       O     3.02626    0.03222   14.77071
      H1     2.84743   -0.32328   13.88537
       H     0.56673    1.95506   15.75510
       O     0.94707    1.15411   16.13057
      H1     1.36038    1.43764   16.97351
       H     1.61399    2.13368   19.18047
       O     2.12129    1.95229   18.37655
      H1     2.72781    1.25562   18.62529
       H    -0.66923   -2.41483   16.02125
       O    -0.66694   -3.39186   15.95180
      H1    -0.94189   -3.50501   15.03818
       H    -1.77010   -2.69861   17.35310
       O    -2.13031   -2.59484   18.23456
      H1    -1.54623   -1.92688   18.59562
       H    -0.73866    0.24384   18.31645
       O    -0.44838   -0.61815   18.69466
      H1     0.36057   -0.84290   18.19887
       H     0.02259    4.51234   15.44978
       O    -0.00110    3.60649   15.75254
      H1    -0.62375    3.62975   16.47143
       H    -5.61016   -1.36866   18.32630
       O    -5.67587   -0.49878   17.82207
      H1    -5.20572    0.08604   18.42579
       H    -1.39477    2.47478   18.21548
       O    -1.95483    1.84962   17.72389
      H1    -2.71941    1.74132   18.34534
       H     0.30303   -1.06272   13.88216
       O     1.04714   -1.20586   13.29484
      H1     1.46255   -1.98492   13.68729
       H     4.18404    0.10533   19.31956
       O     4.16337    0.25931   18.37606
      H1     3.56899   -0.46214   18.09390
       H     1.66953   -4.29098   17.76851
       O     1.84352   -3.95696   16.88566
      H1     0.94402   -3.69148   16.59143
       H    -4.23262   -3.04348   17.97336
       O    -4.95166   -3.31071   17.38812
      H1    -4.91789   -2.72784   16.63263
       H     2.39423   -2.17230   17.29940
       O     2.10838   -1.24049   17.33172
      H1     2.37057   -0.94031   16.40759
       H    -0.70368    0.30389   15.47989
       O    -1.17900   -0.46866   15.19361
      H1    -1.73811   -0.17740   14.47231
       H    -3.18708   -0.65033   15.83857
       O    -4.07753   -0.96915   15.85585
      H1    -4.49826   -0.48396   16.55849
       H    -2.25112    2.45458   16.14418
       O    -2.42803    2.56180   15.19678
      H1    -1.76479    3.15400   14.86676
       H    -2.68226   -5.60001   17.00843
       O    -2.22055   -5.68211   17.86887
      H1    -2.13664   -4.78329   18.18495
       H    -1.21328    5.17076   18.86681
       O    -0.84055    4.42257   18.39931
      H1     0.01028    4.75154   18.15620

