60
frame 3 | Written by MDAnalysis XYZWriter (release 2.4.3)
       H     6.39761   -6.44169    4.16411
       O     6.09644   -7.17255    3.65071
      H1     6.11334   -6.74266    2.78581
       H     9.91400   -2.41705    4.29962
       O    10.07281   -1.71914    3.69766
      H1    11.01988   -1.80676    3.51960
       H    10.51696   -4.13918    5.92154
       O     9.82141   -3.94023    5.28744
      H1     9.85611   -4.62566    4.59798
       H     3.83200   -0.14045    0.68883
       O     3.39266   -0.71246    1.32122
      H1     2.52389   -0.93372    0.93744
       H     5.96086   -5.22708    0.99226
       O     5.40141   -6.00491    0.85350
      H1     4.91317   -5.84500    0.04160
       H     4.03700   -2.40928    0.84692
       O     3.98772   -3.32012    0.55720
      H1     4.69706   -3.41910   -0.07048
       H     3.63109   -3.18377    3.86739
       O     2.73187   -3.52933    3.91071
      H1     2.85953   -4.48578    3.77411
       H     6.30464   -0.89843    6.51624
       O     6.66960   -1.18187    5.69163
      H1     5.96302   -1.33570    5.08403
       H    12.04572   -4.59408   -0.03909
       O    12.26305   -3.91715    0.60279
      H1    11.64379   -3.21739    0.32720
       H     7.89231   -4.54598    2.17228
       O     7.04395   -4.11210    1.98983
      H1     7.34109   -3.31774    1.58404
       H     9.27872   -6.34638    2.64828
       O     9.25656   -5.45317    3.05195
      H1    10.21312   -5.24252    2.94573
       H     5.56255   -3.45035    3.10779
       O     5.18166   -2.61408    3.38497
      H1     5.04160   -2.20246    2.53846
       H     7.75738   -0.96928    1.38846
       O     8.36205   -1.72374    1.33165
      H1     8.91483   -1.56376    2.10127
       H     9.12641   -6.42089   -1.65755
       O     8.40759   -6.24887   -1.03435
      H1     8.40567   -5.27174   -0.98968
       H     8.50004   -8.41376    1.87316
       O     9.01730   -7.69962    1.41955
      H1     8.42538   -7.38736    0.72510
       H     9.91134   -3.08235   -1.58461
       O     9.63963   -3.78050   -2.19583
      H1    10.34411   -3.67851   -2.84657
       H     6.57241    0.73527    2.02185
       O     6.33276   -0.18796    1.93519
      H1     6.64012   -0.54483    2.77289
       H     6.48957   -3.61988   -1.92808
       O     6.40495   -3.01394   -1.17865
      H1     6.25663   -2.10842   -1.51340
       H    10.81772   -1.08598   -0.55346
       O    10.53491   -1.94470   -0.24075
      H1     9.71864   -1.70498    0.20603
       H     6.90096    0.10694   -1.35598
       O     6.18204   -0.42762   -1.65559
      H1     5.41275    0.08106   -1.43833

