60
frame 2 | Written by MDAnalysis XYZWriter (release 2.4.3)
       H    -9.36152  -10.87849   12.11350
       O   -10.18954  -10.91187   11.61534
      H1   -10.86462  -11.02747   12.25915
       H    -8.15521   -6.56557   13.55599
       O    -8.73131   -6.50436   14.33634
      H1    -8.28042   -7.06409   15.00723
       H    -5.59600  -10.21871    9.40826
       O    -4.84444   -9.63051    9.55164
      H1    -5.12308   -8.87306    9.06531
       H    -6.02733   -7.47499   11.94875
       O    -6.66036   -6.81179   12.20386
      H1    -7.14597   -6.71089   11.39089
       H    -8.14650  -11.13543   10.72153
       O    -7.36619  -11.07471   10.15837
      H1    -6.97361  -11.92213   10.29456
       H    -3.95785  -11.69813   15.64062
       O    -3.23522  -12.30031   15.38504
      H1    -3.51752  -12.59645   14.50180
       H    -5.88875   -4.64435   10.36221
       O    -5.65210   -4.51390   11.28120
      H1    -5.85774   -5.35276   11.69674
       H    -1.99687   -8.96809   11.89581
       O    -2.22234   -9.70273   11.34145
      H1    -1.56443   -9.66375   10.60060
       H    -0.96625  -12.60134   11.72264
       O    -1.78320  -12.44190   11.31200
      H1    -1.93379  -11.50453   11.51577
       H    -6.93524   -7.96006    8.32324
       O    -7.58236   -8.33374    8.92128
      H1    -8.11723   -7.54621    9.19054
       H    -3.61687  -11.38309    8.60647
       O    -3.64433  -12.22348    8.12782
      H1    -4.58826  -12.31783    7.92251
       H    -4.55570  -11.62409   12.52019
       O    -4.26677  -12.51752   12.34739
      H1    -3.33293  -12.44658   12.10683
       H    -6.12366  -14.21785   10.81249
       O    -5.90408  -13.59316   10.09663
      H1    -5.26787  -13.05755   10.53938
       H    -0.83751   -7.02868   13.73321
       O    -1.46510   -7.36730   13.10734
      H1    -2.01287   -6.64042   12.81390
       H    -3.71687   -9.32655   13.99355
       O    -2.77652   -9.34398   14.29006
      H1    -2.45157   -8.49380   13.92206
       H    -3.35949   -8.20277   10.10186
       O    -3.28136   -7.21760   10.14178
      H1    -2.34123   -7.01734   10.26424
       H    -7.03232  -14.00989   13.52121
       O    -7.27267  -13.42747   14.24642
      H1    -6.62920  -13.57836   14.95821
       H    -8.29807   -9.08868   16.58964
       O    -7.79268   -8.75447   15.82287
      H1    -7.15533   -8.15538   16.24544
       H    -7.71744  -11.63599   13.73912
       O    -7.71740  -10.85545   13.16528
      H1    -7.93765  -10.15692   13.76371
       H    -5.39411   -9.71580   12.15452
       O    -5.24509   -9.72520   13.12942
      H1    -5.96954  -10.29154   13.46059

