60
frame 3 | Written by MDAnalysis XYZWriter (release 2.4.3)
       H    -1.26739   15.43838  -16.01338
       O    -0.75761   15.14550  -16.77522
      H1    -1.43955   14.95993  -17.48691
       H     4.93781   14.49545  -11.93767
       O     4.29420   14.28642  -11.27878
      H1     3.77878   13.59387  -11.72790
       H     0.68927   12.12846  -17.43261
       O     0.21591   11.49247  -17.98103
      H1     0.57341   10.61519  -17.75930
       H     1.31954   19.14336  -15.74628
       O     1.16126   18.96311  -14.80623
      H1     1.89116   18.40675  -14.57950
       H    -3.21582   12.44441  -11.33586
       O    -2.47681   12.18097  -11.92113
      H1    -1.76671   12.08829  -11.30830
       H    -1.62621   14.63919  -10.19795
       O    -1.94456   15.54110  -10.13912
      H1    -1.94266   15.87833  -11.05840
       H    -2.41337   12.39521  -15.06970
       O    -2.64213   13.13863  -14.53190
      H1    -2.79841   12.74830  -13.68823
       H    -3.45698   16.89273  -15.14585
       O    -2.58198   16.57613  -14.91842
      H1    -2.56438   16.43191  -13.96623
       H     2.36057   16.35742  -11.35996
       O     2.43255   16.94122  -10.60727
      H1     1.88765   17.68383  -10.90674
       H     2.42841   13.26237   -9.52715
       O     1.86258   12.76112  -10.16569
      H1     1.83334   11.86567   -9.81501
       H     2.18352   14.02062  -16.16108
       O     1.33980   13.85061  -15.75112
      H1     0.75528   14.35750  -16.34912
       H     1.87419   11.03679  -14.88609
       O     0.98027   11.04754  -14.49231
      H1     0.73700   11.99960  -14.56369
       H    -5.00529   13.90477  -16.79720
       O    -4.47795   14.54452  -16.24796
      H1    -3.88440   13.99213  -15.72785
       H     2.33478   12.54093  -12.68313
       O     2.92133   12.99991  -13.31711
      H1     3.16184   12.28446  -13.92250
       H    -0.74793   17.03330  -12.13868
       O    -1.37093   16.40165  -12.47537
      H1    -0.77914   15.73292  -12.84147
       H     2.29751   15.12438  -13.07550
       O     1.97741   16.06055  -13.04725
      H1     2.60236   16.61221  -13.58984
       H    -2.87178   11.77157  -17.66897
       O    -2.42911   11.48669  -16.84174
      H1    -1.49141   11.62971  -17.04061
       H    -0.99249   13.82664  -13.99268
       O    -0.24069   14.19614  -13.53180
      H1     0.46741   14.12278  -14.14427
       H     1.09182    9.36229  -11.57502
       O     1.94624    9.41134  -12.06135
      H1     1.71903    9.83366  -12.90442
       H     3.54015   11.25329  -16.09291
       O     3.68537   10.97408  -15.16932
      H1     3.70943   10.02534  -15.23517

