60
frame 2 | Written by MDAnalysis XYZWriter (release 2.4.3)
       H   -10.19511   11.89196   13.13115
       O    -9.31362   12.24196   12.88662
      H1    -8.79284   12.24523   13.71396
       H   -16.78786    7.75453   16.21239
       O   -15.87751    7.45338   16.36181
      H1   -15.99777    6.69922   16.92377
       H   -11.34326    9.68930   17.80046
       O   -10.58420    9.63012   17.23059
      H1   -10.39158   10.53253   16.93484
       H    -6.42778    7.09155   18.36773
       O    -7.27989    6.62929   18.22311
      H1    -7.02068    5.69970   18.30678
       H   -13.41568    8.90337   18.95815
       O   -13.20357    9.64784   18.37469
      H1   -12.97030   10.36980   18.96974
       H    -8.88947   12.78679   17.60112
       O    -8.45209   13.32324   18.28572
      H1    -9.02802   13.18131   19.04951
       H    -5.97961   10.92612   18.13416
       O    -6.78670   10.61537   18.58351
      H1    -7.49339   11.15109   18.21121
       H   -12.10465   11.07882   12.95435
       O   -12.31576   11.58484   13.73870
      H1   -12.79177   10.89034   14.25421
       H   -10.69542    4.40306   18.57622
       O   -11.41023    4.48402   17.90108
      H1   -11.01191    4.17568   17.07829
       H   -15.94776   13.25973   16.35525
       O   -15.22767   12.70793   15.99106
      H1   -15.45679   11.85333   16.37219
       H   -10.24309    8.64759   15.52371
       O   -10.31222    8.15638   14.70009
      H1   -11.24415    8.23318   14.51370
       H   -13.72157   12.82194   17.17570
       O   -12.95317   13.21584   17.58553
      H1   -13.27631   13.72171   18.32275
       H   -12.68886    9.04388   16.04808
       O   -13.42691    9.09912   15.40916
      H1   -13.97778    8.41086   15.77511
       H    -9.23651    7.07046   15.77744
       O    -8.65717    6.33304   16.02374
      H1    -8.38594    6.51105   16.93322
       H   -12.06833    6.15396   17.31396
       O   -12.68641    6.82837   17.06336
      H1   -13.49258    6.61222   17.48928
       H   -12.60424    6.54756   15.20712
       O   -12.85890    6.34511   14.32144
      H1   -12.06254    6.08371   13.80670
       H    -7.01782    7.68309   15.82705
       O    -6.43626    8.36548   15.43150
      H1    -5.66430    8.30269   15.97297
       H    -9.25717   12.25850   15.72210
       O   -10.11203   12.13033   16.17100
      H1   -10.76087   12.51625   15.57045
       H   -12.06656   13.93695   16.46220
       O   -11.71815   14.65711   15.93934
      H1   -12.45894   15.09451   15.52047
       H   -15.94197    9.27721   17.10674
       O   -15.82055   10.16666   17.49915
      H1   -15.01132   10.08814   17.99744

