60
frame 3 | Written by MDAnalysis XYZWriter (release 2.4.3)
       H    13.92778  -10.26256   -6.67262
       O    13.53985  -11.14147   -6.75446
      H1    13.83423  -11.44854   -7.64418
       H    11.46045  -12.50569   -8.39055
       O    11.15831  -11.90221   -7.70560
      H1    11.95887  -11.40031   -7.44887
       H    15.64593  -12.59535   -7.75718
       O    16.18692  -11.98713   -7.23467
      H1    17.13984  -12.16754   -7.38635
       H    16.06952  -10.15259   -6.45363
       O    15.89916   -9.27467   -6.11731
      H1    16.68661   -8.87098   -6.48413
       H    14.03624  -12.47686   -9.83805
       O    13.38667  -11.83792   -9.55824
      H1    12.67530  -12.01411  -10.17490
       H    18.93681  -13.44102   -8.04402
       O    18.48873  -13.19654   -7.23702
      H1    19.05359  -12.49144   -6.90100
       H    15.27997  -11.14210   -9.51243
       O    15.86202  -10.53616   -9.97833
      H1    16.72944  -10.58038   -9.52814
       H    17.49048  -15.90645   -9.88814
       O    17.04033  -15.70839   -9.07470
      H1    17.74868  -15.72236   -8.39588
       H    12.80161  -11.73952   -4.99746
       O    12.42356  -12.24506   -4.26639
      H1    12.17081  -13.11820   -4.61564
       H    15.92442  -12.10963  -11.01128
       O    15.85179  -12.64897  -11.81163
      H1    15.52226  -12.01214  -12.47346
       H    18.97395  -15.14924   -7.22665
       O    18.78582  -16.08645   -7.02915
      H1    18.61883  -16.07956   -6.06903
       H    14.34852  -14.19734   -8.61010
       O    15.13395  -13.76129   -8.97820
      H1    15.76753  -14.47099   -9.02287
       H    18.73890  -10.01704   -7.70602
       O    18.16616   -9.73803   -8.42586
      H1    18.43341   -8.81337   -8.56399
       H    14.50555  -14.01368   -5.42716
       O    14.25715  -14.79329   -5.90597
      H1    13.77536  -15.36950   -5.28908
       H    16.08409  -12.81490   -4.03527
       O    15.36168  -12.58229   -4.65749
      H1    15.83768  -12.37529   -5.47688
       H    13.80800   -8.68743   -5.34650
       O    13.09798   -8.51741   -5.98884
      H1    12.26699   -8.69641   -5.52756
       H    16.11884  -16.39950   -7.53107
       O    16.00188  -16.71336   -6.64383
      H1    15.27860  -16.20902   -6.31850
       H    13.69570   -8.59229  -10.56991
       O    14.58357   -8.30933  -10.56216
      H1    14.98577   -9.00783  -10.01689
       H    18.28511  -11.18037   -3.48681
       O    18.05955  -11.64824   -2.67916
      H1    17.88285  -10.94766   -2.00361
       H    15.46048   -9.38723   -3.17859
       O    15.29474   -8.59678   -3.71336
      H1    15.70504   -8.78802   -4.55707

