60
frame 3 | Written by MDAnalysis XYZWriter (release 2.4.3)
       H    -1.65287   -0.72425    9.97421
       O    -1.60900    0.15043    9.54081
      H1    -1.23421    0.75015   10.18699
       H    -7.73430    1.13206    8.16539
       O    -8.58089    1.25513    8.59353
      H1    -8.30708    1.68228    9.42722
       H    -4.53593   -1.97100    9.08375
       O    -3.75936   -1.98814    8.49826
      H1    -4.14613   -2.01194    7.63316
       H    -2.81165   -0.28012    7.35767
       O    -3.18515    0.31483    6.69230
      H1    -3.45270   -0.24817    5.98706
       H    -3.22426   -0.24474   12.75754
       O    -2.72231    0.61955   12.75586
      H1    -3.34700    1.23369   13.18142
       H    -6.22627    4.82389    9.90371
       O    -6.55315    4.62547   10.80844
      H1    -7.48634    4.77361   10.73640
       H    -1.58501    2.89202   10.86431
       O    -1.03319    2.15240   11.23244
      H1    -1.67293    1.66198   11.78034
       H    -4.55073    3.52524   13.68131
       O    -4.24062    3.99953   12.84886
      H1    -5.05278    4.39971   12.47484
       H    -3.68825    2.33291    9.23638
       O    -3.80729    1.70894    9.94075
      H1    -3.03917    1.12717    9.90916
       H    -5.97119   -0.77372    6.83056
       O    -6.30626   -1.66520    6.66948
      H1    -6.94997   -1.82524    7.36697
       H    -5.94183   -2.88943   10.62749
       O    -5.45740   -2.06875   10.57878
      H1    -4.83597   -2.11612   11.31515
       H    -8.72987    1.93485   14.36589
       O    -8.35498    1.21784   14.93680
      H1    -7.48681    1.04965   14.54321
       H    -5.73958   -0.41467   11.39168
       O    -5.68961    0.52732   11.52987
      H1    -5.13667    0.81315   10.81200
       H    -5.53837    0.34646   13.40301
       O    -5.85957    0.55210   14.28582
      H1    -5.40141   -0.07411   14.86699
       H    -2.77775    5.21710   10.01448
       O    -2.70043    4.25818   10.11094
      H1    -3.38718    4.09456   10.75417
       H    -7.15702    3.01058   11.01802
       O    -7.75949    2.28342   11.14909
      H1    -7.15478    1.55269   11.28128
       H    -4.11505   -2.43683   13.60067
       O    -3.64139   -2.08142   12.83190
      H1    -2.85638   -2.65305   12.90715
       H    -6.28924    2.47490   14.65238
       O    -6.38146    3.40900   14.54401
      H1    -7.23267    3.63001   14.94010
       H    -7.80793   -1.64126    9.76320
       O    -8.16415   -1.79408    8.87995
      H1    -9.10743   -1.84270    9.02102
       H    -5.70163    1.77182    7.28156
       O    -5.91332    1.04339    7.89431
      H1    -5.19648    1.17407    8.57070

