60
frame 3 | Written by MDAnalysis XYZWriter (release 2.4.3)
       H    18.87919    4.79393   -3.67994
       O    19.09741    4.35038   -4.52699
      H1    18.21994    4.27103   -4.96471
       H    14.48403    0.70777   -4.35115
       O    13.65560    1.07164   -4.68396
      H1    13.74089    1.99692   -4.46913
       H    17.31789    2.24747   -2.94518
       O    17.63341    2.68012   -2.17218
      H1    17.49424    2.04761   -1.42869
       H    16.76986   -0.01959    0.02320
       O    17.09383    0.88871   -0.04942
      H1    16.39253    1.37226    0.40993
       H    16.35871    6.20698   -6.48693
       O    16.38677    5.24100   -6.52717
      H1    15.74544    5.01765   -7.19894
       H    15.35901    5.43106   -2.63604
       O    15.28335    4.45354   -2.67810
      H1    16.19277    4.15481   -2.63604
       H    18.52485   -0.32920    1.38738
       O    18.41527   -0.23870    2.33290
      H1    18.35820   -1.13516    2.64027
       H    12.74069   -0.43115   -2.41223
       O    13.31035    0.31288   -2.12388
      H1    13.43274    0.84493   -2.91133
       H    19.00465    3.01354    1.78946
       O    18.13816    3.14658    2.26448
      H1    17.61057    3.36029    1.46747
       H    18.06032    6.53393   -2.39137
       O    18.07294    5.59467   -2.33195
      H1    18.76230    5.36717   -1.68651
       H    17.36002   -1.22681   -5.59180
       O    17.35577   -1.43044   -4.67683
      H1    18.29540   -1.28326   -4.45787
       H    16.92470    2.26648    3.37549
       O    16.30214    2.11810    4.11837
      H1    15.85299    2.99124    4.20134
       H    17.05110    5.88434    0.85328
       O    17.39372    6.69319    1.27967
      H1    17.74812    7.23734    0.55568
       H    15.39838    7.82918   -2.73376
       O    14.90771    7.11311   -2.33105
      H1    14.09112    7.26744   -2.80296
       H    14.43727    2.28613    1.37250
       O    14.95228    2.79410    0.73785
      H1    14.30923    3.38653    0.31818
       H    16.09360    3.89503    0.00331
       O    16.86016    4.46484   -0.12143
      H1    17.06962    4.39541   -1.04756
       H    14.05563    4.82241   -1.15900
       O    13.56091    4.80266   -0.36516
      H1    12.64991    4.70077   -0.66238
       H    15.57548    0.37177   -2.61340
       O    15.95667    0.60883   -3.47494
      H1    16.54268   -0.12617   -3.65624
       H    15.87512   -2.30924   -0.69970
       O    15.95093   -1.74796    0.07771
      H1    15.84657   -2.33948    0.81458
       H    14.88527    3.98508   -5.64802
       O    14.24766    3.70720   -5.00023
      H1    14.49111    4.19535   -4.20549

