60
frame 2 | Written by MDAnalysis XYZWriter (release 2.4.3)
       H    -3.33346    7.08410  -10.92081
       O    -2.62770    7.14979  -11.56495
      H1    -1.83674    7.11867  -11.00540
       H     5.26708    8.21678  -13.63262
       O     5.61755    7.78575  -14.40305
      H1     6.52348    7.59457  -14.19248
       H    -0.08477    5.39024   -7.49114
       O    -0.79040    5.99786   -7.75339
      H1    -0.45852    6.46608   -8.51908
       H     1.24533    6.98936  -13.99094
       O     0.36737    6.75735  -14.38033
      H1     0.13464    7.58723  -14.78441
       H     2.02377    9.15037  -15.44010
       O     2.58757    8.93856  -14.70381
      H1     2.57703    7.98421  -14.61193
       H     0.02819    6.09221  -12.55942
       O    -0.28402    5.64863  -11.75862
      H1    -1.22999    5.52607  -11.82312
       H    -1.99309    8.93724   -9.76363
       O    -2.51952    8.69693   -8.99329
      H1    -1.89203    8.79463   -8.28609
       H     2.44225    6.84276  -17.23964
       O     2.88373    6.17980  -16.66047
      H1     2.63124    6.39665  -15.75694
       H     2.79610    5.03616  -10.73220
       O     3.26500    5.84817  -10.86079
      H1     2.66838    6.41525  -11.35329
       H     2.86402   11.93816  -13.53870
       O     3.56364   11.27691  -13.46814
      H1     3.14114   10.46323  -13.79951
       H     0.39020    8.56288   -9.56900
       O     0.12843    7.64796   -9.75593
      H1     0.67063    7.43804  -10.50455
       H     4.15594   11.26635  -11.05288
       O     4.28653   10.50950  -10.46046
      H1     4.70393   10.95323   -9.71311
       H     2.57273    3.09462  -13.66357
       O     1.90527    3.78318  -13.54564
      H1     1.66404    3.69516  -12.59308
       H     4.30102    4.98642  -12.07344
       O     5.11156    4.52009  -12.40648
      H1     5.19028    4.80464  -13.33220
       H     4.41878    9.22206  -11.50424
       O     4.39151    8.43431  -12.08331
      H1     4.82916    7.71013  -11.59147
       H     1.50583    4.33315   -9.43727
       O     1.35270    4.04441  -10.36097
      H1     0.99561    4.83679  -10.81972
       H     0.76152    8.20562  -12.19586
       O     1.57009    7.68569  -12.04996
      H1     2.29207    8.23994  -12.28610
       H     3.35005    7.11422   -9.47900
       O     3.45029    7.43429   -8.57899
      H1     4.12745    6.83811   -8.22331
       H     4.00750    6.35047  -14.52608
       O     3.18582    6.35442  -13.94558
      H1     2.92934    5.40774  -13.95597
       H    -0.84637    9.98896  -11.72443
       O    -0.46790    9.40266  -12.42279
      H1    -0.62322    9.91705  -13.19743

