60
frame 3 | Written by MDAnalysis XYZWriter (release 2.4.3)
       H   -14.33896    7.41700  -10.27047
       O   -13.71907    6.89867  -10.81897
      H1   -13.08868    7.55480  -11.21556
       H   -19.62365    9.62307  -11.31743
       O   -19.18038    9.73137  -12.15899
      H1   -18.26511    9.52419  -12.01279
       H   -12.67609    5.43925  -10.60231
       O   -12.25395    4.58867  -10.40322
      H1   -13.01832    4.13762   -9.97094
       H   -15.64565    8.91523  -10.66665
       O   -15.59175    9.32067  -11.54727
      H1   -14.68448    9.13402  -11.82611
       H   -14.65641    4.76334  -13.60769
       O   -14.88497    5.54149  -14.12541
      H1   -15.20369    6.21139  -13.48682
       H   -15.68247    8.24801  -15.84999
       O   -15.52125    7.41749  -16.30555
      H1   -15.35332    6.78892  -15.59697
       H   -16.49728    5.65071  -10.12234
       O   -16.39105    5.37461   -9.21536
      H1   -17.03783    4.65005   -9.16432
       H   -12.92704    5.77746  -13.83894
       O   -12.02002    5.65542  -13.56192
      H1   -11.81267    6.42206  -13.01357
       H   -14.58019   10.65689  -16.57096
       O   -15.31354   10.15144  -16.18028
      H1   -15.88389   10.86045  -15.85843
       H   -17.18924    7.52639  -12.14458
       O   -17.19329    7.01396  -12.95937
      H1   -17.72549    6.27063  -12.81327
       H   -17.55179    2.63226  -11.47709
       O   -17.53922    3.00200  -10.59568
      H1   -17.12261    2.28058  -10.12699
       H   -17.08039   11.87164  -13.15080
       O   -16.40576   11.22576  -13.42709
      H1   -16.13176   10.80454  -12.60404
       H   -15.63870    7.25648   -8.60162
       O   -15.35687    8.12738   -8.97485
      H1   -14.68934    8.46139   -8.37690
       H   -19.25884    6.86053  -15.50323
       O   -19.28138    6.01519  -15.96977
      H1   -18.49796    5.56647  -15.62347
       H   -16.87845    3.79558  -16.41853
       O   -17.03715    4.12102  -15.51036
      H1   -16.23318    4.57313  -15.32224
       H   -16.72305    9.08612   -8.09515
       O   -17.56628    9.42602   -7.74221
      H1   -18.25821    8.83220   -8.08015
       H   -14.50448    9.99101  -13.92661
       O   -13.60416    9.79944  -13.71518
      H1   -13.27746    9.35190  -14.51937
       H   -14.93223    4.30236   -9.03121
       O   -14.23209    3.65534   -8.87409
      H1   -13.93144    3.87769   -7.99773
       H   -16.76016    6.83801  -17.50242
       O   -17.43560    6.50196  -18.11795
      H1   -18.15532    6.18058  -17.55925
       H   -18.66547    8.43305  -10.20494
       O   -17.92945    7.86522  -10.44500
      H1   -18.20745    6.93015  -10.47417

