60
frame 2 | Written by MDAnalysis XYZWriter (release 2.4.3)
       H    -9.95673   -3.69816  -14.79530
       O    -9.16485   -4.25055  -15.03665
      H1    -8.62476   -4.23397  -14.21952
       H   -12.15815   -9.59456  -14.74451
       O   -12.47826   -8.68598  -14.88809
      H1   -12.40304   -8.46822  -15.80878
       H   -11.61619   -8.14219  -12.82472
       O   -11.60915   -8.79477  -12.10796
      H1   -10.66442   -8.82932  -11.80977
       H    -7.86263   -5.81267  -16.83911
       O    -8.21191   -6.69453  -16.71063
      H1    -9.15136   -6.50272  -16.79032
       H    -7.20707   -7.17117  -12.47768
       O    -7.35435   -7.16646  -11.51637
      H1    -8.03893   -7.81712  -11.34010
       H    -8.99732   -5.44049  -10.00193
       O    -8.39537   -4.85844  -10.50913
      H1    -8.00251   -5.57155  -11.04427
       H   -10.93942   -7.57994  -17.36636
       O   -11.25264   -6.71149  -17.15325
      H1   -11.68344   -6.39521  -17.96195
       H    -7.20684   -9.28116  -13.17177
       O    -6.57505   -9.85770  -12.72534
      H1    -6.09333  -10.28444  -13.43666
       H    -7.28291   -9.69264  -17.70977
       O    -7.08161   -8.76938  -17.95249
      H1    -7.30236   -8.25915  -17.16129
       H    -9.30863   -9.20249   -9.89923
       O    -9.16087   -9.38577  -10.83307
      H1    -8.42580  -10.04037  -10.83872
       H   -11.08185   -3.41600  -11.09480
       O   -10.80234   -4.09851  -11.70982
      H1    -9.92113   -4.30262  -11.40452
       H    -9.93325  -11.07253  -11.86482
       O   -10.30720  -11.30582  -12.73138
      H1   -11.09057  -10.73092  -12.75133
       H    -7.13169   -7.45148  -15.07371
       O    -7.55145   -7.72447  -14.25007
      H1    -8.50919   -7.47221  -14.37573
       H   -10.04727   -6.06142  -14.48103
       O   -10.23227   -6.92410  -14.11079
      H1   -10.98149   -7.24080  -14.65968
       H   -10.72267   -7.34738   -9.13377
       O   -10.18973   -7.16500   -9.90383
      H1   -10.86519   -7.01965  -10.57663
       H    -6.87887   -3.31525  -13.13896
       O    -6.89347   -4.21211  -13.48035
      H1    -6.58662   -4.18582  -14.41852
       H    -4.81015   -9.06728  -12.53945
       O    -3.94532   -8.78668  -12.19050
      H1    -4.19436   -8.32039  -11.39495
       H    -6.07103   -8.02961  -10.55126
       O    -5.50509   -8.39901   -9.83866
      H1    -5.44177   -7.62796   -9.26596
       H    -5.96000   -4.89925  -17.20699
       O    -5.87413   -4.86635  -16.26241
      H1    -5.13776   -5.49074  -16.08045
       H   -10.65971  -11.24114  -15.40161
       O   -11.54283  -11.03267  -15.74428
      H1   -11.93243  -11.89042  -15.83405

