60
frame 3 | Written by MDAnalysis XYZWriter (release 2.4.3)
       H    -5.69081   15.82459  -11.16242
       O    -5.83159   16.03705  -12.09052
      H1    -6.80119   16.20585  -12.14732
       H    -8.45990   16.06376  -11.11024
       O    -8.46069   15.50885  -11.92755
      H1    -8.05299   14.64579  -11.64516
       H    -7.20665   18.70286  -13.92969
       O    -7.37185   17.75989  -14.00812
      H1    -8.17557   17.66639  -13.49677
       H    -6.34162   13.78531   -7.53854
       O    -5.49868   13.49977   -7.91763
      H1    -5.05843   12.98627   -7.26443
       H    -6.35803   13.12651  -12.31649
       O    -6.98656   13.17078  -11.58981
      H1    -7.43979   12.32502  -11.64137
       H    -3.21582   12.44441  -11.33586
       O    -2.47681   12.18097  -11.92113
      H1    -1.76671   12.08829  -11.30830
       H    -5.78337   14.59722  -13.08036
       O    -5.70920   13.94799  -13.77303
      H1    -4.74960   13.94369  -13.93108
       H    -1.62621   14.63919  -10.19795
       O    -1.94456   15.54110  -10.13912
      H1    -1.94266   15.87833  -11.05840
       H    -7.58605   16.36720   -9.05669
       O    -8.16540   16.93456   -9.62875
      H1    -8.90354   17.12470   -9.03399
       H    -3.45698   16.89273  -15.14585
       O    -2.58198   16.57613  -14.91842
      H1    -2.56438   16.43191  -13.96623
       H    -7.91607   14.67538   -6.50733
       O    -7.76925   14.80662   -7.44595
      H1    -8.42546   14.29055   -7.92752
       H    -5.19009   15.92136   -7.15902
       O    -5.14348   16.66885   -6.54349
      H1    -5.24398   17.40424   -7.11886
       H    -3.99830   16.08696   -9.68423
       O    -4.89987   16.00712   -9.40321
      H1    -4.91976   15.16250   -8.93395
       H    -3.93120   18.19160  -11.74337
       O    -4.52441   18.41718  -12.45990
      H1    -5.06693   17.61784  -12.51459
       H    -2.10706   18.14908   -9.54612
       O    -2.44811   18.55960  -10.33172
      H1    -1.96876   19.38500  -10.32586
       H    -0.74793   17.03330  -12.13868
       O    -1.37093   16.40165  -12.47537
      H1    -0.77914   15.73292  -12.84147
       H    -4.92962   12.02942   -9.31124
       O    -4.59515   11.56405  -10.09447
      H1    -3.85198   11.02692   -9.74071
       H    -2.61995   19.04046  -13.09763
       O    -2.29206   19.23374  -14.00064
      H1    -2.26657   18.32202  -14.37850
       H    -5.15990   17.96351   -9.14956
       O    -4.75479   18.63153   -8.56578
      H1    -4.00349   18.93441   -9.09138
       H   -11.39335   15.35690  -13.31591
       O   -10.78562   14.60910  -13.30126
      H1   -10.00060   14.98249  -12.90068

