60
frame 5 | Written by MDAnalysis XYZWriter (release 2.4.3)
       H    17.94645    4.19973    6.17130
       O    17.96636    3.81586    7.11227
      H1    17.04251    3.67336    7.42881
       H    17.24414    5.81066    5.49385
       O    18.03406    5.52184    5.05088
      H1    18.77800    6.01546    5.35032
       H    13.75571    4.39044    1.94718
       O    14.20512    4.81242    1.16342
      H1    15.13711    4.91764    1.40764
       H    14.71345    2.86840    7.78981
       O    15.20662    3.57373    7.33679
      H1    14.78026    4.39920    7.58417
       H    14.74530    3.03246    5.38410
       O    14.82837    2.40869    4.60616
      H1    14.18021    2.72779    3.96977
       H    12.71424    5.03729    3.74901
       O    12.65655    4.06768    3.62066
      H1    11.77957    3.77523    3.90934
       H    16.91885    1.53452    1.69661
       O    17.30015    2.30858    1.35854
      H1    18.23195    2.18039    1.21795
       H    14.78462    0.55199    0.02911
       O    14.01906    1.16726   -0.05939
      H1    14.33521    1.97417    0.38705
       H    16.45733   -0.08281    3.38501
       O    16.42338    0.05438    2.44981
      H1    15.99351   -0.66209    1.98065
       H    13.69100    0.91676    7.85311
       O    13.98547    0.11501    7.35173
      H1    14.68942    0.44996    6.77101
       H    15.33395    6.61589    6.70534
       O    15.76459    6.54517    5.87348
      H1    15.06981    6.63211    5.23071
       H    12.42263    1.45644    1.13993
       O    11.76692    1.89659    1.66502
      H1    11.51059    2.73177    1.25802
       H    13.34156   -1.50110    3.98062
       O    13.04187   -1.02856    3.21362
      H1    12.71824   -0.20682    3.56268
       H    13.49379    6.82883    3.08283
       O    13.43419    6.58535    4.00682
      H1    12.91127    7.28789    4.43406
       H    11.77559    0.26838    7.38054
       O    10.85119    0.27098    7.47238
      H1    10.51481   -0.27791    6.74479
       H    17.50255    3.84750    2.01205
       O    17.47874    4.82253    2.16952
      H1    17.57256    5.02342    3.10765
       H    10.47937    3.50316    6.77605
       O    10.83316    3.50682    7.66317
      H1    10.12689    3.13922    8.16080
       H    17.08678    0.64704    5.89032
       O    16.30059    0.32707    5.48419
      H1    15.74802    1.11498    5.32633
       H    10.49240    0.33070    4.29966
       O    10.99670    1.19724    4.14747
      H1    10.99957    1.25103    3.16111
       H    10.47034    2.70425    4.50609
       O    10.01390    3.49666    4.84508
      H1     9.13255    3.36386    4.56155

