60
frame 3 | Written by MDAnalysis XYZWriter (release 2.4.3)
       H    15.27053   12.68470   12.49794
       O    15.06124   11.75187   12.39747
      H1    15.70321   11.48476   11.72264
       H    18.12868    9.61718   15.35811
       O    17.45444   10.12008   15.84100
      H1    17.27708   10.83075   15.25656
       H    18.34974    8.42780   13.44041
       O    18.90393    8.30742   14.21624
      H1    18.54653    7.50886   14.64477
       H    18.74163    2.57222   11.65055
       O    17.83619    2.73761   11.88417
      H1    17.76776    3.69759   12.03783
       H    14.42133    7.18436   16.84569
       O    13.72838    7.50351   17.45606
      H1    13.09837    8.00041   16.91520
       H    14.60678    3.75889   15.49294
       O    15.06209    4.34225   16.09621
      H1    14.30985    4.84780   16.45696
       H    17.59406    9.25459   17.36179
       O    17.60833    8.57730   18.03466
      H1    18.48963    8.67274   18.42190
       H    16.66104    4.27982   14.91055
       O    17.31585    4.25499   14.20323
      H1    17.65841    3.35751   14.32096
       H    17.43709   13.76002   17.41686
       O    17.93295   12.97563   17.16392
      H1    17.43195   12.57176   16.46793
       H    16.80742    5.38315   10.38217
       O    16.76785    5.62293   11.30907
      H1    15.97798    5.13525   11.62416
       H    14.43044    7.93652   11.57438
       O    13.78655    7.76601   10.84739
      H1    13.63540    6.80557   10.94192
       H    15.16621    8.48298   14.28109
       O    14.66457    9.23782   14.66415
      H1    14.98773    9.99125   14.11207
       H    18.14849    7.32159   16.95751
       O    18.34474    6.53842   16.43703
      H1    19.30061    6.46696   16.36591
       H    16.46357    5.92264   14.33277
       O    16.29217    6.67100   14.88377
      H1    17.04129    6.66734   15.49017
       H    14.73544    9.26247   17.79603
       O    14.77435   10.14860   17.39935
      H1    15.29805   10.01600   16.58980
       H    15.73834   11.91076   14.07347
       O    16.12849   12.29763   14.84973
      H1    15.35463   12.63407   15.38202
       H    15.55584    2.76038   13.22187
       O    14.63741    2.79481   13.53734
      H1    14.31588    1.90403   13.51169
       H    17.52558    3.44788   17.45241
       O    17.84204    4.22817   17.89619
      H1    18.05749    4.81512   17.19109
       H    16.78612    8.95014   11.27306
       O    16.72249    8.41328   12.05457
      H1    16.84316    7.53873   11.66528
       H    16.19445   10.29685    9.71222
       O    16.73208   10.75116   10.38159
      H1    17.63840   10.77044   10.02252

