60
frame 3 | Written by MDAnalysis XYZWriter (release 2.4.3)
       H     9.31857  -12.56186   -7.65883
       O     8.42901  -12.88005   -7.82040
      H1     7.88327  -12.09823   -7.73394
       H     5.12963  -13.69627   -8.84135
       O     4.89228  -12.76142   -8.87860
      H1     5.60276  -12.35771   -8.36154
       H     6.76611  -13.54039   -6.64415
       O     6.20512  -13.66172   -5.86639
      H1     6.84829  -13.70617   -5.14881
       H     2.78401  -18.21906   -7.70046
       O     3.74456  -18.30268   -7.81098
      H1     4.05152  -17.40225   -7.63395
       H     6.04911  -14.04407   -2.47022
       O     6.06779  -14.88069   -2.97850
      H1     5.19502  -14.95534   -3.40716
       H     3.83483  -12.61857   -3.96342
       O     3.72839  -13.57444   -3.99450
      H1     3.39404  -13.79531   -3.12207
       H     7.97836  -14.54266   -8.67497
       O     7.72665  -15.43261   -8.89623
      H1     8.21409  -15.98004   -8.27710
       H     4.20760  -11.10660   -9.67410
       O     4.41055  -10.32365  -10.19027
      H1     3.89753   -9.69848   -9.71974
       H     3.76964  -13.22337  -10.26379
       O     3.20516  -13.44794  -10.98633
      H1     2.82382  -14.26451  -10.66467
       H     7.83680  -15.60097  -12.53203
       O     7.43550  -15.72498  -11.65945
      H1     8.06384  -15.33090  -11.04651
       H     1.38248  -15.87088   -5.78728
       O     0.45954  -15.89732   -6.05131
      H1     0.39168  -15.21144   -6.73199
       H     2.44837  -12.84812   -4.87690
       O     1.67766  -12.62118   -5.38088
      H1     1.81431  -11.65820   -5.55619
       H     2.84585  -16.43382  -10.44711
       O     1.98874  -16.05249  -10.68052
      H1     1.90420  -16.24126  -11.63702
       H     3.47171  -16.71219   -5.17920
       O     2.63715  -17.21577   -5.09925
      H1     2.84745  -18.06070   -5.57303
       H     0.05945  -14.01831   -8.93104
       O     0.21256  -14.96256   -8.95077
      H1     0.79665  -15.07746   -9.68051
       H     2.93966  -13.94200   -6.56892
       O     2.75979  -14.67121   -7.14301
      H1     1.90130  -14.47036   -7.50173
       H     4.75229  -16.45448  -10.12954
       O     4.41057  -17.26617  -10.52464
      H1     4.07435  -17.82377   -9.80901
       H     5.69637  -16.44732   -5.96645
       O     4.79920  -16.07207   -5.99523
      H1     4.93808  -15.12914   -5.90398
       H     4.60140  -15.29485   -8.02503
       O     5.08538  -15.27135   -8.84364
      H1     6.02103  -15.43093   -8.58352
       H     4.63131  -14.30723  -11.90169
       O     4.94062  -15.04123  -12.49958
      H1     5.86863  -15.13833  -12.21918

