60
frame 3 | Written by MDAnalysis XYZWriter (release 2.4.3)
       H    -5.69081   15.82459  -11.16242
       O    -5.83159   16.03705  -12.09052
      H1    -6.80119   16.20585  -12.14732
       H    -8.45990   16.06376  -11.11024
       O    -8.46069   15.50885  -11.92755
      H1    -8.05299   14.64579  -11.64516
       H    -7.20665   18.70286  -13.92969
       O    -7.37185   17.75989  -14.00812
      H1    -8.17557   17.66639  -13.49677
       H   -11.82178   16.21964   -6.32368
       O   -10.95275   15.82605   -6.47299
      H1   -10.57289   16.46315   -7.11430
       H    -6.34162   13.78531   -7.53854
       O    -5.49868   13.49977   -7.91763
      H1    -5.05843   12.98627   -7.26443
       H    -6.35803   13.12651  -12.31649
       O    -6.98656   13.17078  -11.58981
      H1    -7.43979   12.32502  -11.64137
       H    -5.78337   14.59722  -13.08036
       O    -5.70920   13.94799  -13.77303
      H1    -4.74960   13.94369  -13.93108
       H    -7.58605   16.36720   -9.05669
       O    -8.16540   16.93456   -9.62875
      H1    -8.90354   17.12470   -9.03399
       H    -7.91607   14.67538   -6.50733
       O    -7.76925   14.80662   -7.44595
      H1    -8.42546   14.29055   -7.92752
       H    -9.21764   17.60703   -6.59589
       O    -9.84797   18.09211   -7.11490
      H1   -10.57000   18.29953   -6.53613
       H    -6.74151   17.17693   -5.82302
       O    -7.64162   17.39578   -5.53013
      H1    -7.64100   18.36582   -5.48419
       H    -5.19009   15.92136   -7.15902
       O    -5.14348   16.66885   -6.54349
      H1    -5.24398   17.40424   -7.11886
       H    -3.99830   16.08696   -9.68423
       O    -4.89987   16.00712   -9.40321
      H1    -4.91976   15.16250   -8.93395
       H   -11.78709   17.72480  -11.04915
       O   -11.37114   18.12422  -10.29076
      H1   -12.15970   18.51184   -9.88295
       H    -3.93120   18.19160  -11.74337
       O    -4.52441   18.41718  -12.45990
      H1    -5.06693   17.61784  -12.51459
       H    -4.92962   12.02942   -9.31124
       O    -4.59515   11.56405  -10.09447
      H1    -3.85198   11.02692   -9.74071
       H    -3.47377   16.81335   -6.72626
       O    -2.57789   16.75066   -7.01918
      H1    -2.17538   17.58649   -6.69545
       H    -5.15990   17.96351   -9.14956
       O    -4.75479   18.63153   -8.56578
      H1    -4.00349   18.93441   -9.09138
       H   -11.39335   15.35690  -13.31591
       O   -10.78562   14.60910  -13.30126
      H1   -10.00060   14.98249  -12.90068
       H    -9.91901   12.09928   -7.88073
       O   -10.02977   12.93129   -7.44189
      H1   -10.80644   13.31351   -7.93086

