60
frame 3 | Written by MDAnalysis XYZWriter (release 2.4.3)
       H    13.21311  -13.21085   -1.17928
       O    12.68716  -13.58187   -1.88270
      H1    12.90763  -13.10100   -2.66049
       H    14.19847  -11.96312    0.86984
       O    14.99755  -11.84336    0.35565
      H1    15.65856  -12.40133    0.80104
       H     9.77408  -11.30786   -5.82725
       O     9.54543  -11.10879   -4.90133
      H1    10.15757  -11.63546   -4.38683
       H    10.74138  -14.42202   -6.54084
       O    11.34884  -14.21906   -5.79252
      H1    12.21765  -14.39108   -6.14488
       H    12.22568   -8.46005    1.52835
       O    11.69148   -8.36439    0.75349
      H1    10.94690   -7.89347    1.08902
       H     9.74199  -11.35133   -0.43170
       O     9.42272  -10.69008    0.21962
      H1     8.54299  -11.01222    0.45905
       H    11.64019   -9.77050   -3.45285
       O    11.16192   -9.18111   -4.09981
      H1    10.41282   -9.73233   -4.35006
       H     8.38239  -15.21893   -0.63525
       O     7.83796  -15.88521   -0.17691
      H1     6.92883  -15.65654   -0.34145
       H    15.01148  -14.64187   -0.12911
       O    15.61336  -15.11225   -0.70326
      H1    15.05040  -15.73185   -1.16890
       H    12.80161  -11.73952   -4.99746
       O    12.42356  -12.24506   -4.26639
      H1    12.17081  -13.11820   -4.61564
       H     9.56538   -8.68226   -2.24430
       O     8.84699   -9.16211   -1.78978
      H1     9.30856   -9.74796   -1.13473
       H    11.74311  -10.40408    1.25407
       O    12.24158  -11.22062    1.09191
      H1    11.70587  -11.88917    1.53955
       H    14.19910   -8.89121    1.09362
       O    13.98004   -9.50692    1.81884
      H1    13.59142  -10.18325    1.24904
       H    16.08409  -12.81490   -4.03527
       O    15.36168  -12.58229   -4.65749
      H1    15.83768  -12.37529   -5.47688
       H    11.34266  -12.23599   -2.02969
       O    10.46811  -11.82684   -2.02906
      H1     9.86271  -12.56298   -2.16073
       H    12.03834   -9.18565   -1.02599
       O    12.72187   -9.03550   -1.67356
      H1    13.34937   -9.78261   -1.69284
       H    10.57251  -14.26535   -0.84925
       O     9.83947  -14.51671   -1.44384
      H1    10.23314  -15.15478   -2.03720
       H    10.25992  -14.25295    1.57545
       O    10.89582  -13.62057    1.16874
      H1    11.72389  -14.03987    1.30120
       H     7.59615  -10.05381   -2.83001
       O     7.14903  -10.64311   -3.45188
      H1     7.80759  -10.84964   -4.15345
       H    15.19466  -11.16796   -1.32562
       O    14.81258  -10.84015   -2.16496
      H1    15.00573  -11.57963   -2.72707

