60
frame 3 | Written by MDAnalysis XYZWriter (release 2.4.3)
       H    15.70812  -16.29840    1.19435
       O    16.07579  -16.85470    1.89083
      H1    16.90096  -16.48136    2.16990
       H    15.64593  -12.59535   -7.75718
       O    16.18692  -11.98713   -7.23467
      H1    17.13984  -12.16754   -7.38635
       H    18.93681  -13.44102   -8.04402
       O    18.48873  -13.19654   -7.23702
      H1    19.05359  -12.49144   -6.90100
       H    13.54835  -16.90568   -3.87685
       O    13.07602  -16.75896   -4.71284
      H1    12.16057  -16.98608   -4.50562
       H    13.75264  -17.19644   -1.92837
       O    14.45619  -16.80696   -2.46261
      H1    15.04304  -17.54790   -2.55298
       H    15.01148  -14.64187   -0.12911
       O    15.61336  -15.11225   -0.70326
      H1    15.05040  -15.73185   -1.16890
       H    17.49048  -15.90645   -9.88814
       O    17.04033  -15.70839   -9.07470
      H1    17.74868  -15.72236   -8.39588
       H    18.97395  -15.14924   -7.22665
       O    18.78582  -16.08645   -7.02915
      H1    18.61883  -16.07956   -6.06903
       H    17.88953  -17.46769    0.60114
       O    17.69509  -18.24926    0.06775
      H1    16.72926  -18.27333    0.09421
       H    14.34852  -14.19734   -8.61010
       O    15.13395  -13.76129   -8.97820
      H1    15.76753  -14.47099   -9.02287
       H    14.50555  -14.01368   -5.42716
       O    14.25715  -14.79329   -5.90597
      H1    13.77536  -15.36950   -5.28908
       H    16.08409  -12.81490   -4.03527
       O    15.36168  -12.58229   -4.65749
      H1    15.83768  -12.37529   -5.47688
       H    14.73349  -17.93571   -6.73058
       O    13.99374  -18.57567   -6.59084
      H1    13.57590  -18.13155   -5.81440
       H    17.15109  -17.54008   -5.61393
       O    17.67423  -18.11437   -5.05114
      H1    18.15987  -17.45279   -4.49882
       H    16.42476  -14.29460   -2.05185
       O    16.83437  -13.92969   -2.86604
      H1    17.18552  -13.08621   -2.53544
       H    16.11884  -16.39950   -7.53107
       O    16.00188  -16.71336   -6.64383
      H1    15.27860  -16.20902   -6.31850
       H    18.28511  -11.18037   -3.48681
       O    18.05955  -11.64824   -2.67916
      H1    17.88285  -10.94766   -2.00361
       H    15.19466  -11.16796   -1.32562
       O    14.81258  -10.84015   -2.16496
      H1    15.00573  -11.57963   -2.72707
       H    18.45154  -12.79963    0.11391
       O    19.02715  -13.48219   -0.21576
      H1    18.82603  -14.28890    0.26509
       H    19.37685  -16.18481   -3.09393
       O    18.76341  -15.92773   -3.77492
      H1    18.12129  -15.32195   -3.37768

