60
frame 3 | Written by MDAnalysis XYZWriter (release 2.4.3)
       H   -13.78693   -1.58379   -5.73607
       O   -14.68965   -1.64971   -6.03567
      H1   -14.85462   -0.72128   -6.28345
       H   -13.82814   -7.05028   -5.31820
       O   -13.51980   -6.19055   -5.62606
      H1   -12.63820   -6.34523   -5.96588
       H   -15.97819   -5.15829   -9.08882
       O   -16.62260   -4.67385   -9.64074
      H1   -16.39021   -4.90371  -10.54449
       H   -12.66040    0.35809   -9.44485
       O   -13.10544    0.09366   -8.60863
      H1   -12.41177    0.31818   -7.93697
       H   -14.89278    2.17876   -9.57106
       O   -15.21950    1.36443  -10.01020
      H1   -14.52778    0.73843   -9.77606
       H   -11.38278   -3.26164   -8.09794
       O   -10.65676   -2.71154   -7.83220
      H1    -9.95895   -3.38652   -7.78056
       H   -10.43178   -1.58481  -10.30476
       O   -11.19454   -2.03238  -10.74135
      H1   -11.79427   -2.28519  -10.03341
       H   -13.18558   -2.23820   -8.19767
       O   -13.21304   -2.85297   -8.93443
      H1   -14.02274   -2.65257   -9.46109
       H   -14.24752   -4.01662  -12.18901
       O   -14.61015   -3.27293  -11.65823
      H1   -14.78262   -2.60058  -12.34591
       H   -14.48482   -7.24849   -9.22975
       O   -14.65929   -7.56293  -10.12746
      H1   -14.31669   -6.84719  -10.68029
       H   -14.12869   -4.71827   -8.51880
       O   -14.42811   -5.55640   -8.16170
      H1   -14.07047   -5.67740   -7.27210
       H   -10.77150   -3.69293  -11.13243
       O   -10.91662   -4.56189  -11.59775
      H1   -10.00320   -4.94044  -11.67258
       H   -14.47273    1.40113   -6.57416
       O   -15.19050    0.92489   -7.01229
      H1   -14.88970    0.92639   -7.95650
       H   -10.79548   -6.20229   -8.27719
       O   -10.76255   -6.46559   -9.20568
      H1   -11.60031   -6.18893   -9.60982
       H   -18.16123   -2.37593   -7.16263
       O   -17.23917   -2.64332   -7.33348
      H1   -16.75147   -2.08127   -6.72499
       H   -12.36516   -0.64932  -11.20255
       O   -13.12910   -0.11292  -11.41910
      H1   -13.74756   -0.78024  -11.69434
       H   -17.23735   -4.12054   -6.28594
       O   -17.05397   -5.04980   -6.05524
      H1   -16.18175   -5.29536   -6.40504
       H   -11.36856   -2.04492   -6.08365
       O   -11.99389   -1.85208   -5.35045
      H1   -11.88294   -2.58239   -4.71654
       H   -16.04862   -2.49456  -10.63402
       O   -16.30971   -1.87201   -9.95379
      H1   -16.69999   -2.39359   -9.22524
       H   -12.50541   -5.56054  -11.83262
       O   -13.43561   -5.78890  -11.96078
      H1   -13.49996   -6.26685  -12.79521

