60
frame 3 | Written by MDAnalysis XYZWriter (release 2.4.3)
       H     9.77408  -11.30786   -5.82725
       O     9.54543  -11.10879   -4.90133
      H1    10.15757  -11.63546   -4.38683
       H     6.76611  -13.54039   -6.64415
       O     6.20512  -13.66172   -5.86639
      H1     6.84829  -13.70617   -5.14881
       H     7.53817   -8.37635   -0.74467
       O     6.71181   -8.38468   -0.24850
      H1     6.32656   -7.54255   -0.42759
       H     6.04911  -14.04407   -2.47022
       O     6.06779  -14.88069   -2.97850
      H1     5.19502  -14.95534   -3.40716
       H     9.74199  -11.35133   -0.43170
       O     9.42272  -10.69008    0.21962
      H1     8.54299  -11.01222    0.45905
       H    11.64019   -9.77050   -3.45285
       O    11.16192   -9.18111   -4.09981
      H1    10.41282   -9.73233   -4.35006
       H     6.23079  -11.74161   -2.16900
       O     5.99162  -12.45384   -1.57577
      H1     5.15910  -12.16252   -1.14986
       H     4.75022   -5.88271   -2.70643
       O     5.41041   -6.19280   -2.11860
      H1     6.24360   -6.04436   -2.58648
       H     9.56538   -8.68226   -2.24430
       O     8.84699   -9.16211   -1.78978
      H1     9.30856   -9.74796   -1.13473
       H     8.78599   -8.57806   -7.39170
       O     8.46126   -8.62490   -6.49846
      H1     7.62212   -9.12597   -6.55957
       H     4.72370   -8.09229   -2.87061
       O     3.83294   -8.41427   -3.08845
      H1     3.66008   -8.09627   -4.00251
       H     6.24873   -9.32888   -4.44767
       O     5.89662   -8.89161   -5.23409
      H1     6.31830   -8.02829   -5.14442
       H    11.34266  -12.23599   -2.02969
       O    10.46811  -11.82684   -2.02906
      H1     9.86271  -12.56298   -2.16073
       H     7.22023   -5.59459   -5.14283
       O     7.24655   -6.26378   -5.82854
      H1     8.07039   -6.76209   -5.63281
       H     9.12641   -6.42089   -1.65755
       O     8.40759   -6.24887   -1.03435
      H1     8.40567   -5.27174   -0.98968
       H     7.59615  -10.05381   -2.83001
       O     7.14903  -10.64311   -3.45188
      H1     7.80759  -10.84964   -4.15345
       H     4.64847   -9.88633    1.48156
       O     5.09824  -10.32037    0.74904
      H1     5.54466   -9.54332    0.32627
       H    10.68699   -7.62836   -3.36701
       O    10.17261   -6.94198   -2.92238
      H1    10.07875   -6.29600   -3.63896
       H     5.03837  -11.38548   -4.57141
       O     4.13793  -11.01247   -4.76204
      H1     4.15182  -10.18653   -4.25642
       H     6.93069  -12.34419    0.22069
       O     7.25346  -12.17171    1.11179
      H1     6.68659  -11.42050    1.31929

