60
frame 3 | Written by MDAnalysis XYZWriter (release 2.4.3)
       H   -13.73725    1.38431   17.00655
       O   -13.05030    0.91729   17.52744
      H1   -12.25801    1.28029   17.11181
       H   -15.62553    3.91297   15.82324
       O   -15.85440    4.36282   15.02591
      H1   -15.01823    4.66434   14.65889
       H   -14.01389    7.51633   18.35267
       O   -14.19654    7.65118   17.38830
      H1   -15.02430    7.21987   17.17852
       H   -14.31049    0.51762   13.49955
       O   -15.12046    0.83401   13.93777
      H1   -15.74495    0.71841   13.23089
       H   -18.00321    1.50700   16.02529
       O   -17.92810    1.41734   16.99723
      H1   -17.80829    2.32509   17.32546
       H   -18.13222   -3.63489   17.52588
       O   -18.18239   -2.70367   17.19743
      H1   -17.67800   -2.22729   17.88514
       H   -12.46216   -1.04332   17.92674
       O   -12.19291   -1.81762   18.43295
      H1   -12.95663   -2.02746   18.98883
       H   -17.54447    4.62809   13.98866
       O   -18.22437    5.22035   13.67764
      H1   -19.03250    4.85713   14.08912
       H   -12.67963    3.53465   15.31994
       O   -12.98096    4.20344   15.97454
      H1   -12.16457    4.20108   16.52398
       H   -14.50291   -0.94583   16.96928
       O   -14.55970   -1.42544   16.13894
      H1   -14.83599   -2.26998   16.49960
       H   -16.71717    4.31971   17.82866
       O   -17.51384    3.83217   18.08115
      H1   -18.16743    4.54923   18.19760
       H   -17.56485    1.07396   11.23130
       O   -17.63761    1.91233   11.67308
      H1   -16.81987    2.29577   11.29900
       H   -17.39097    8.13487   18.61030
       O   -17.75701    9.01427   18.56679
      H1   -17.79082    9.18382   17.63708
       H   -18.36445   -2.22793   15.55557
       O   -18.69094   -1.91096   14.72097
      H1   -18.02768   -1.30435   14.39542
       H   -15.01434    4.08019   18.92143
       O   -14.94624    4.62748   18.11121
      H1   -14.24281    4.13038   17.71099
       H   -18.23217    2.67690   13.90047
       O   -18.79679    2.08867   14.46424
      H1   -19.37067    1.62210   13.87736
       H   -16.52614    5.94331   15.81718
       O   -16.74858    6.67348   16.44612
      H1   -16.57735    7.43848   15.94157
       H   -16.49758   -1.48409   12.55477
       O   -17.19652   -0.80133   12.54552
      H1   -17.32693   -0.70802   11.58943
       H   -17.95835    6.71050   12.57618
       O   -17.53440    6.99474   11.76203
      H1   -18.25407    7.07807   11.15175
       H   -15.20462    1.54230   15.62815
       O   -15.30493    2.00154   16.47466
      H1   -16.07066    1.58269   16.89968

