60
frame 3 | Written by MDAnalysis XYZWriter (release 2.4.3)
       H    -9.73175   12.49233   -0.98598
       O   -10.62834   12.79583   -1.05894
      H1   -11.08070   12.16949   -0.46840
       H    -7.19787   12.80283   -1.12765
       O    -7.76677   12.00680   -1.22486
      H1    -7.20378   11.28103   -0.98790
       H   -12.53644    8.04869   -2.50151
       O   -12.23266    7.76686   -1.64190
      H1   -11.63275    7.05334   -1.86402
       H   -11.98386    9.86305    4.92393
       O   -11.39232    9.48802    4.26328
      H1   -10.91490    8.82975    4.76452
       H   -12.84872    9.12184    3.28579
       O   -13.63504    9.25855    2.76566
      H1   -14.13649    8.44746    2.84611
       H    -9.00613   11.18931    3.64399
       O    -9.69396   11.67595    4.11729
      H1   -10.32440   10.95917    4.43159
       H   -11.18650   15.11633    0.73375
       O   -10.93044   15.42042   -0.14219
      H1   -10.67315   14.61019   -0.61870
       H   -13.75119    9.56212    1.08229
       O   -13.92875    9.52995    0.13969
      H1   -13.56804    8.67184   -0.07401
       H   -12.01563   13.04558   -2.41233
       O   -12.80986   13.08212   -2.97992
      H1   -13.56470   12.95524   -2.43054
       H   -12.91970   13.89812    2.37704
       O   -13.14561   13.06068    1.94236
      H1   -13.47652   12.54583    2.67338
       H   -15.52094   12.85467   -2.02539
       O   -15.02672   12.00554   -2.06641
      H1   -14.84918   11.74783   -1.14760
       H    -7.19413    9.92826    2.57289
       O    -7.98933    9.70241    3.03743
      H1    -8.62932    9.41744    2.36825
       H   -10.32314    8.60776    0.45458
       O   -10.17008    8.47073    1.39937
      H1   -10.81680    7.81693    1.67223
       H    -7.28280   12.21999    1.31812
       O    -6.56673   11.57175    1.33315
      H1    -5.83045   12.13131    1.61271
       H    -9.00868    7.17945    0.70328
       O    -8.42479    6.43566    0.54689
      H1    -8.78788    5.70836    1.09339
       H   -10.66329   10.35695    1.68634
       O   -11.04300   11.11357    1.20981
      H1   -11.80121   11.29427    1.76504
       H    -9.14527   12.80344    2.69017
       O    -8.84461   13.16928    1.85275
      H1    -9.58877   12.97134    1.28840
       H   -12.75235   11.32195   -2.42916
       O   -12.17439   10.56087   -2.20746
      H1   -12.63256   10.14924   -1.47727
       H   -13.79519   10.75445    4.05487
       O   -13.74695   11.65851    4.37999
      H1   -13.92792   11.53688    5.32205
       H   -15.99811   11.90681    1.06632
       O   -15.71500   12.64512    0.52088
      H1   -14.90008   12.88362    0.93619

