60
frame 2 | Written by MDAnalysis XYZWriter (release 2.4.3)
       H     1.92608   -7.23860  -10.22169
       O     1.74979   -6.78926  -11.06202
      H1     1.93859   -5.84032  -10.89600
       H    -0.47346   -2.96147  -13.70369
       O    -0.94339   -2.13249  -13.57261
      H1    -0.41007   -1.72256  -12.87741
       H     0.05904   -4.91145   -9.09474
       O    -0.70455   -4.33526   -9.07038
      H1    -0.77954   -4.23111   -8.11416
       H    -1.39770   -5.91191   -9.64335
       O    -1.72360   -6.80869   -9.72234
      H1    -1.34649   -7.17313  -10.54958
       H    -3.58752   -2.29896  -15.35192
       O    -3.32974   -1.55351  -14.79035
      H1    -2.74793   -2.06620  -14.19623
       H     0.94677   -3.81002  -12.64898
       O     0.85609   -4.20058  -13.49778
      H1     1.70919   -4.01744  -13.92324
       H     4.24271   -1.10483  -11.07126
       O     3.39175   -1.49893  -11.35221
      H1     3.34026   -1.33442  -12.31598
       H     3.29043   -3.20363  -11.12859
       O     3.33510   -4.17257  -11.08913
      H1     4.01281   -4.37997  -10.43395
       H     0.17003    0.03433  -15.30587
       O     0.96266    0.47206  -14.97456
      H1     1.51024    0.63618  -15.78473
       H    -0.85364   -5.12739  -13.33534
       O    -1.43862   -5.77566  -13.70008
      H1    -0.89130   -6.55785  -13.65342
       H     3.39710    1.32393  -11.82974
       O     3.05407    1.35344  -10.92033
      H1     2.45618    0.59895  -10.81144
       H    -0.13903    0.33858  -11.98962
       O     0.56644   -0.33172  -12.11362
      H1     0.95709   -0.09222  -12.98382
       H     0.68629   -0.79578   -9.48889
       O     1.63806   -0.73687   -9.44936
      H1     1.98567   -1.12445  -10.24491
       H    -2.22999   -1.54926  -10.46884
       O    -2.93108   -2.08094  -10.86792
      H1    -3.00447   -2.88348  -10.31438
       H     2.23431   -0.98468   -7.87404
       O     2.50346   -0.88694   -6.94562
      H1     2.28165    0.02751   -6.73587
       H     3.09105   -1.78628  -14.47891
       O     3.05163   -0.89295  -14.11832
      H1     2.24558   -0.54444  -14.51240
       H     0.39644   -1.89973  -11.06351
       O     0.47927   -2.84527  -11.04087
      H1     0.05901   -3.13431  -10.23444
       H    -1.65141    2.53714  -11.73814
       O    -1.64301    1.58012  -11.53812
      H1    -2.27633    1.19897  -12.17243
       H    -3.43860   -1.65926   -7.02489
       O    -2.94717   -2.19916   -7.64512
      H1    -2.50258   -2.84910   -7.09111
       H    -1.40086    0.04631   -8.72055
       O    -1.23970   -0.76358   -9.22707
      H1    -1.48916   -1.46564   -8.62090

