60
frame 3 | Written by MDAnalysis XYZWriter (release 2.4.3)
       H   -10.87588   -4.86306   -3.78116
       O   -11.40896   -4.04625   -3.83989
      H1   -12.30837   -4.37700   -3.80252
       H   -14.66232   -4.90217   -3.58949
       O   -14.20454   -4.24520   -3.05947
      H1   -14.76250   -3.45368   -3.15704
       H   -13.82814   -7.05028   -5.31820
       O   -13.51980   -6.19055   -5.62606
      H1   -12.63820   -6.34523   -5.96588
       H   -12.48778   -9.11714   -4.54911
       O   -13.39889   -9.00768   -4.88861
      H1   -13.88104   -9.85092   -4.73925
       H   -13.74953   -4.95811   -1.35761
       O   -13.75671   -5.21822   -0.40987
      H1   -13.52910   -4.37440    0.02230
       H   -12.94018  -11.90603   -3.36232
       O   -12.18831  -12.47931   -3.61776
      H1   -11.76640  -11.97714   -4.34978
       H   -11.87438  -11.60951    1.07965
       O   -12.61070  -11.20235    0.60756
      H1   -13.00550  -10.63882    1.26225
       H   -12.91185   -8.22261   -2.04256
       O   -13.85167   -8.39593   -1.86596
      H1   -13.95394   -8.24691   -0.92820
       H   -14.91218  -11.52902   -3.21868
       O   -14.76033  -11.29195   -4.14840
      H1   -15.09204  -12.07080   -4.61312
       H   -11.02658   -8.60637   -0.32025
       O   -10.69838   -9.16880    0.38446
      H1   -11.45868   -9.72784    0.61275
       H   -11.51839   -7.01467    0.65955
       O   -11.30824   -6.16003    0.31651
      H1   -12.17542   -5.76515    0.16951
       H   -13.99323   -7.85707    1.63187
       O   -14.27752   -8.19619    0.78769
      H1   -15.08115   -8.64313    1.02637
       H    -8.12956   -6.84745   -0.59018
       O    -8.72063   -6.08184   -0.68441
      H1    -9.54589   -6.42732   -0.32962
       H   -13.95148  -11.44104   -0.77645
       O   -14.73098  -11.11862   -1.23922
      H1   -14.49262  -10.20914   -1.48022
       H   -16.19477   -4.53687   -1.48170
       O   -16.20853   -4.49269   -0.49806
      H1   -15.58766   -5.18221   -0.26205
       H    -8.75303   -6.50881   -3.80938
       O    -9.43106   -5.98110   -3.38574
      H1    -9.21609   -5.96939   -2.48216
       H   -14.91164   -7.25354   -3.13891
       O   -15.68592   -6.85107   -3.59324
      H1   -15.90377   -7.51220   -4.25446
       H   -10.40960   -8.98348   -2.91670
       O   -10.97044   -8.32880   -2.50011
      H1   -10.51214   -7.49217   -2.71574
       H   -16.06909   -9.69694   -4.52445
       O   -16.60983   -9.04569   -4.97945
      H1   -16.32248   -9.13767   -5.89849
       H    -9.33192   -9.75932   -0.45460
       O    -8.67125  -10.38695   -0.75744
      H1    -8.91928  -11.21579   -0.35673

