60
frame 3 | Written by MDAnalysis XYZWriter (release 2.4.3)
       H    11.41142   11.25161    6.30732
       O    11.36479   10.31645    6.05699
      H1    10.44084   10.09060    6.23190
       H     7.93293   16.03052    7.10625
       O     7.26301   15.39892    6.74318
      H1     6.64725   15.28891    7.48679
       H    11.31799   16.60685    8.04314
       O    11.65169   15.79510    7.62075
      H1    12.59376   15.78454    7.79155
       H    14.86598   16.31991    7.32508
       O    14.43169   15.47331    7.56551
      H1    14.59124   15.43527    8.51501
       H    14.23280   15.44068   10.84334
       O    14.22933   14.67766   10.25832
      H1    13.38593   14.25286   10.36554
       H     8.31940   18.17537   10.91876
       O     9.07567   18.21109   11.51167
      H1     9.75013   17.75137   10.98938
       H    11.65035   13.50613    7.46342
       O    11.43155   13.00543    6.68823
      H1    10.92208   13.61209    6.18532
       H    10.04427   18.01822    8.72077
       O    10.86630   17.89884    9.25707
      H1    11.14714   18.80688    9.41254
       H    12.53306   11.47513    9.08194
       O    11.64468   11.74258    9.27362
      H1    11.74955   12.09317   10.18232
       H     8.36635   18.41670    7.37933
       O     8.96864   17.65302    7.43549
      H1     9.75925   17.96897    6.98652
       H    11.10355   15.48298    5.72072
       O    10.73009   14.96452    5.00630
      H1    11.25010   15.17351    4.22378
       H     7.73249   15.44004   13.07398
       O     8.18588   15.66656   12.25835
      H1     8.40948   16.59387   12.37035
       H     9.46569   14.64375   12.81593
       O    10.17771   14.06385   13.10431
      H1    10.68758   13.89230   12.29976
       H    14.67356   13.63191    6.62675
       O    15.12936   12.76132    6.76777
      H1    15.69684   13.01905    7.50784
       H     8.77187   13.34501    8.82021
       O     8.26859   12.50864    8.78189
      H1     8.05881   12.47943    7.84443
       H     7.86647   13.68556    6.33001
       O     7.69964   12.73062    6.26741
      H1     8.42980   12.25643    5.80755
       H    10.16500    9.68571    9.50537
       O     9.42476    9.83958    8.92875
      H1     9.38412   10.79714    8.91434
       H    13.03798   13.73461   11.95900
       O    12.44145   13.05725   11.61817
      H1    12.75800   12.29317   12.05302
       H    10.57925   14.80076    8.80030
       O    10.20448   14.14409    9.41273
      H1    10.48202   13.27900    9.08180
       H     7.55120   12.09510   10.42843
       O     7.37094   11.92152   11.35895
      H1     6.43268   11.69635   11.28858

