60
frame 0 | Written by MDAnalysis XYZWriter (release 2.4.3)
       H     5.58110   11.40431  -11.81458
       O     4.88195   12.03274  -11.98186
      H1     4.38945   11.53743  -12.63691
       H     8.27101   13.75903  -15.14420
       O     9.00593   14.13006  -14.62056
      H1     9.09592   13.39561  -14.02434
       H     3.16044    9.83766  -16.63495
       O     3.56594   10.69863  -16.49515
      H1     3.06046   11.32631  -17.03538
       H     7.24247   19.16136  -13.47683
       O     6.86073   18.79983  -14.29542
      H1     5.92089   18.67577  -14.12750
       H     3.20178   14.31356  -13.38631
       O     3.10255   13.89815  -14.24245
      H1     4.03840   13.81177  -14.46107
       H     8.35506   12.20988  -17.99666
       O     8.72145   11.49659  -17.46794
      H1     9.15555   10.93348  -18.14720
       H     5.67051   11.48990  -16.26137
       O     6.51566   11.80814  -15.87018
      H1     7.15023   11.66872  -16.58125
       H     3.70344   15.56958  -11.54417
       O     3.23784   14.70411  -11.58294
      H1     3.89835   14.05428  -11.24201
       H     6.20705   13.44151  -11.84906
       O     6.82187   14.17133  -11.74723
      H1     7.67370   13.75893  -11.71124
       H     9.07124   15.68600  -13.34832
       O     9.31477   16.26249  -12.57222
      H1     9.61874   15.59813  -11.96736
       H     1.79113   12.51575  -14.26273
       O     1.10097   11.86494  -14.28482
      H1     0.40410   12.23084  -13.72524
       H     6.28335   16.53305  -18.36099
       O     6.58256   15.84239  -17.77419
      H1     6.95407   16.35409  -17.03044
       H     4.88209   11.50126  -18.62172
       O     4.96247   12.43037  -18.57700
      H1     5.89959   12.52417  -18.36285
       H     7.12909   15.61398   -9.04134
       O     6.52155   14.88171   -9.07661
      H1     6.68322   14.46594   -9.92818
       H     5.60776   16.52955  -10.89954
       O     4.70060   16.80074  -10.99767
      H1     4.49023   17.19673  -10.13821
       H     6.29491   14.15424  -13.60117
       O     5.93914   14.13317  -14.50041
      H1     6.23585   13.30223  -14.89064
       H     7.51176   17.55672  -15.14229
       O     8.01102   16.93321  -15.70376
      H1     8.22144   16.17481  -15.15059
       H     4.27975   18.04013  -12.59618
       O     4.32775   18.78006  -13.20208
      H1     4.53508   19.51232  -12.62600
       H     4.43422   15.85011  -15.85158
       O     3.51180   16.18150  -15.96469
      H1     2.98098   15.63108  -15.35142
       H     2.99488    9.72380  -13.74707
       O     3.87522   10.09822  -13.88764
      H1     3.78185   10.51292  -14.74914

