60
frame 3 | Written by MDAnalysis XYZWriter (release 2.4.3)
       H   -14.89087   17.43646   12.59063
       O   -15.57688   17.38263   13.27889
      H1   -15.27649   16.68277   13.89342
       H   -10.66525   18.01331   15.32303
       O   -10.49577   17.40841   14.60741
      H1   -11.13787   17.71550   13.95036
       H    -9.06474   13.75357   17.54981
       O    -9.09280   14.62057   17.90953
      H1    -9.75648   14.56534   18.61743
       H    -7.42454   18.59052   17.12663
       O    -7.74104   18.12624   16.36715
      H1    -7.67205   17.18880   16.58203
       H    -8.81258   18.24580   10.20391
       O    -9.58029   18.59036    9.73816
      H1    -9.72862   19.47111   10.15595
       H   -10.64607   14.26982   11.79407
       O   -10.77745   15.00356   11.17061
      H1   -10.13028   14.77575   10.48232
       H    -5.68127   17.55712   13.73938
       O    -5.91526   18.28136   14.29927
      H1    -6.53081   17.88191   14.96568
       H    -5.99272   15.49480   17.66577
       O    -6.57179   14.73641   17.45639
      H1    -7.37240   14.87111   17.96528
       H    -8.07059   15.06241   13.08050
       O    -7.70988   14.38145   13.67323
      H1    -7.14368   13.76983   13.17321
       H   -10.90431   15.99636   15.79764
       O   -11.12371   15.21455   16.31575
      H1   -10.40544   15.19153   16.98353
       H   -14.16039   15.60659   15.49654
       O   -15.03283   15.33642   15.20782
      H1   -14.79541   14.54332   14.71002
       H   -12.49361   17.08064    9.38875
       O   -12.74933   16.55025   10.13617
      H1   -11.97028   16.11004   10.47350
       H    -7.70360   18.74771   14.18328
       O    -8.54252   19.08302   13.83536
      H1    -9.20201   18.50635   14.22386
       H   -12.96751   16.47429   18.55089
       O   -12.99403   15.52455   18.29045
      H1   -12.29046   15.50982   17.62547
       H    -8.05213   17.01229   11.12618
       O    -7.42461   17.31625   10.47729
      H1    -7.44245   16.59517    9.84843
       H   -11.70321   17.86744   11.44544
       O   -11.73346   18.41031   12.26395
      H1   -11.06289   19.07831   12.06199
       H    -9.41439   17.07811   13.18424
       O    -9.11617   16.63991   12.35798
      H1    -9.93716   16.40543   11.92445
       H    -8.31276   13.42064   15.16186
       O    -8.61497   12.76758   15.80863
      H1    -9.54937   12.68370   15.52688
       H   -11.04283   13.71501   15.32610
       O   -11.28833   12.84628   14.96480
      H1   -10.85246   12.79653   14.11561
       H    -6.39120   15.29274   14.12539
       O    -5.90419   15.62455   14.89348
      H1    -6.40980   15.23813   15.59565

