60
frame 2 | Written by MDAnalysis XYZWriter (release 2.4.3)
       H   -12.57281   -9.73313   -9.72181
       O   -12.28614  -10.62654   -9.48018
      H1   -11.93077  -10.96145  -10.29694
       H   -12.61064  -14.20114  -16.17860
       O   -12.72392  -13.41230  -15.66622
      H1   -12.27668  -13.55944  -14.85794
       H   -12.15815   -9.59456  -14.74451
       O   -12.47826   -8.68598  -14.88809
      H1   -12.40304   -8.46822  -15.80878
       H   -11.61619   -8.14219  -12.82472
       O   -11.60915   -8.79477  -12.10796
      H1   -10.66442   -8.82932  -11.80977
       H   -15.72052   -8.31307  -11.45908
       O   -15.92011   -9.19106  -11.85122
      H1   -15.07135   -9.65515  -11.74672
       H   -13.89194  -11.04714  -13.72726
       O   -13.90991  -11.43133  -12.83966
      H1   -14.66167  -12.03616  -12.90096
       H   -10.50320   -9.43605  -18.46046
       O   -11.25279   -9.47527  -17.86962
      H1   -11.13663  -10.24734  -17.29097
       H   -12.81230   -9.96668  -18.54445
       O   -13.79739  -10.05655  -18.50982
      H1   -14.00167  -10.20905  -17.57624
       H   -14.08202   -7.51393   -9.93368
       O   -13.89007   -8.33818  -10.38251
      H1   -13.10370   -8.12539  -10.88836
       H   -15.36658   -6.25693  -13.31247
       O   -14.56193   -6.76069  -13.49342
      H1   -14.84811   -7.64552  -13.74939
       H    -9.93325  -11.07253  -11.86482
       O   -10.30720  -11.30582  -12.73138
      H1   -11.09057  -10.73092  -12.75133
       H   -11.05702  -13.92477   -9.51676
       O   -11.02417  -13.18894  -10.13043
      H1   -11.48362  -13.45619  -10.90829
       H   -15.00178  -13.53141  -15.65668
       O   -15.93354  -13.53311  -15.43617
      H1   -15.96119  -13.15449  -14.54284
       H   -16.67801  -13.85966  -12.68765
       O   -16.44253  -12.94540  -12.93114
      H1   -17.24084  -12.53245  -13.29736
       H   -11.11545  -14.29235  -12.73547
       O   -11.71127  -13.62471  -13.06345
      H1   -11.11166  -12.84760  -12.96052
       H   -14.77721  -15.46753  -12.40795
       O   -13.89459  -15.39236  -12.06539
      H1   -13.45707  -14.75317  -12.64778
       H   -16.06296   -9.72919  -14.95222
       O   -16.18336   -8.87981  -14.47144
      H1   -16.08389   -9.15385  -13.54874
       H   -12.93176  -12.66199  -10.15255
       O   -13.83170  -12.99266  -10.18891
      H1   -13.91842  -13.29614  -11.09557
       H   -10.65971  -11.24114  -15.40161
       O   -11.54283  -11.03267  -15.74428
      H1   -11.93243  -11.89042  -15.83405
       H   -15.88974  -11.84026  -16.66522
       O   -15.74718  -10.86419  -16.67161
      H1   -16.17958  -10.56256  -17.48101

