60
frame 6 | Written by MDAnalysis XYZWriter (release 2.4.3)
       H    -1.02201   16.24016   -3.72080
       O    -1.75929   15.82172   -3.23098
      H1    -1.88894   16.48217   -2.55036
       H    -2.09908   14.11191    3.39525
       O    -2.17675   15.05120    3.41232
      H1    -2.54961   15.27216    2.56072
       H    -9.70573   19.99173    1.27178
       O    -9.91751   19.28538    0.66758
      H1   -10.76135   19.00070    1.04315
       H    -5.31001   18.50120    5.09120
       O    -6.10624   18.20141    4.62993
      H1    -5.82619   17.87323    3.75913
       H    -2.10592   19.47236    2.95262
       O    -1.22664   19.09615    2.93733
      H1    -0.73496   19.75135    3.43791
       H    -5.35371   18.97441   -2.53553
       O    -6.02218   19.53936   -2.22853
      H1    -5.96266   20.40882   -2.62140
       H    -9.32103   17.40240    4.30377
       O    -8.81293   17.90344    4.91855
      H1    -7.94093   17.81275    4.60993
       H    -7.12351   16.03488   -1.94795
       O    -6.67854   15.79849   -1.14768
      H1    -6.91525   14.83924   -0.87597
       H    -8.05377   17.32502   -4.05497
       O    -7.93044   17.43521   -3.10832
      H1    -7.49837   18.31160   -2.98471
       H    -4.64992   14.51757    2.31834
       O    -4.37210   15.11816    1.62001
      H1    -4.91130   15.87510    1.83592
       H    -0.71604   18.30065    1.51988
       O    -0.53206   18.02224    0.58811
      H1    -0.33291   17.09207    0.54465
       H    -5.15898   19.49216   -0.38838
       O    -4.70439   18.96160    0.23995
      H1    -4.59117   19.54053    1.04136
       H    -1.66418   17.97959   -0.81988
       O    -2.37501   18.27428   -1.39236
      H1    -3.04775   18.66510   -0.88379
       H    -5.41636   13.30228   -1.02779
       O    -5.83831   13.29414   -0.14014
      H1    -5.45124   13.88790    0.54517
       H    -6.93778   17.23134    1.40969
       O    -6.00476   17.26248    1.78812
      H1    -5.51541   17.83338    1.18918
       H    -3.74606   17.34952   -2.25009
       O    -4.54458   17.02311   -2.66505
      H1    -5.05055   16.57726   -1.96403
       H    -7.98228   16.63524   -0.07092
       O    -8.65675   16.78409    0.61247
      H1    -9.04580   17.65820    0.46824
       H    -5.42118   16.60459    6.05610
       O    -5.33885   15.99344    6.78866
      H1    -5.81667   16.49095    7.47043
       H    -9.92141   14.14509   -0.10456
       O   -10.46838   14.68502    0.55181
      H1    -9.88701   15.45518    0.84826
       H    -3.93575   15.10903    6.21775
       O    -3.11374   14.67096    5.95457
      H1    -2.95536   15.04770    5.07396

