60
frame 0 | Written by MDAnalysis XYZWriter (release 2.4.3)
       H   -12.24237   10.21074   -1.81406
       O   -12.35580   10.48284   -2.75980
      H1   -12.87059    9.75320   -3.14536
       H   -12.49993    7.59472   -5.96005
       O   -12.31104    8.55240   -5.94238
      H1   -11.33959    8.58555   -5.86750
       H   -13.27965   11.76824   -4.31044
       O   -14.18127   12.09034   -4.27190
      H1   -14.41813   11.88887   -3.35180
       H   -12.31203    5.85282   -1.56599
       O   -12.43086    5.05595   -1.03751
      H1   -11.59871    4.56318   -1.23043
       H   -13.18958    5.43162   -6.82770
       O   -12.90984    5.90350   -6.02426
      H1   -12.31064    5.31080   -5.55968
       H   -16.34455    9.36143   -0.71632
       O   -15.96116   10.18715   -0.37773
      H1   -15.43303   10.54187   -1.11434
       H   -13.59897    3.82519   -1.94999
       O   -13.63260    3.09129   -2.57781
      H1   -14.42634    3.23707   -3.13637
       H   -16.11551    5.18674   -5.80721
       O   -16.43247    5.24539   -6.74317
      H1   -17.35716    4.95216   -6.63193
       H   -13.74196    8.80865   -4.98835
       O   -14.12021    8.92250   -4.10476
      H1   -15.06889    9.07761   -4.30779
       H   -14.75518    5.49350   -3.72003
       O   -14.93388    5.00514   -4.52868
      H1   -14.21781    5.42913   -5.05268
       H   -16.42233    3.23013   -1.63401
       O   -16.77799    3.51049   -2.49553
      H1   -17.39010    4.22761   -2.31137
       H   -13.72218   11.93832   -0.64955
       O   -14.34870   12.03181   -1.39622
      H1   -14.52293   12.98556   -1.40245
       H   -11.14243    6.31058   -3.78521
       O   -10.77283    5.48863   -4.12679
      H1    -9.84900    5.70266   -4.27465
       H   -17.52589    8.27948   -4.40204
       O   -16.97722    9.06262   -4.13854
      H1   -17.39732    9.86486   -4.47994
       H   -14.43836    7.45165   -2.84913
       O   -14.85217    6.73048   -2.32627
      H1   -14.32130    6.75881   -1.54676
       H   -14.51769    7.37920    1.45711
       O   -14.16076    7.81217    0.64002
      H1   -14.68924    8.61014    0.53841
       H   -12.04954   10.04330    0.65654
       O   -12.04529    9.27861    0.09118
      H1   -12.78499    8.77107    0.40635
       H   -17.69055    8.00005   -1.36388
       O   -16.98181    7.42242   -0.95172
      H1   -16.56001    7.02522   -1.73365
       H   -11.68962    8.47360   -1.39278
       O   -11.45498    7.70990   -1.93240
      H1   -10.50967    7.74964   -1.86306
       H   -15.64752    3.21715   -4.63884
       O   -15.28302    2.33701   -4.79792
      H1   -15.80181    1.77325   -4.19534

