60
frame 0 | Written by MDAnalysis XYZWriter (release 2.4.3)
       H     1.12583   -9.58123   -8.66137
       O     1.61427   -9.78973   -9.48626
      H1     1.75377   -8.93458   -9.87986
       H    -3.63089   -9.45609   -4.56614
       O    -4.56936   -9.29282   -4.62896
      H1    -4.70145   -8.84608   -5.46533
       H    -2.55159  -13.18000   -4.36344
       O    -3.49939  -12.91842   -4.44332
      H1    -3.91871  -13.74459   -4.71808
       H     1.14828   -7.25244   -6.31307
       O     0.75885   -7.55072   -5.47121
      H1    -0.06060   -7.94282   -5.77158
       H    -1.99780   -8.54555   -8.41021
       O    -2.36700   -8.08429   -9.16856
      H1    -1.70258   -8.24718   -9.84419
       H     0.89457  -12.07004  -12.67122
       O     0.04684  -12.42859  -12.94836
      H1    -0.38576  -12.66094  -12.10660
       H    -2.29627   -6.42390   -7.36964
       O    -1.45226   -6.53246   -6.92201
      H1    -1.47680   -5.89118   -6.18840
       H     0.23112  -12.19321   -4.38214
       O    -0.61401  -12.61488   -4.21109
      H1    -0.36202  -13.54167   -4.21295
       H    -0.51739  -12.58831   -8.36972
       O     0.20627  -12.76127   -8.92938
      H1     0.77750  -11.98888   -8.77824
       H    -1.37085  -10.83755   -5.02598
       O    -1.41768   -9.88133   -5.11540
      H1    -1.22281   -9.58615   -4.20858
       H    -0.40277  -14.93891   -6.15682
       O    -0.92655  -14.67793   -6.93955
      H1    -1.82476  -14.49454   -6.57703
       H    -0.07586   -8.47120  -11.92850
       O    -1.00931   -8.47481  -11.57583
      H1    -1.43103   -9.31074  -11.88373
       H    -2.24474  -10.92858   -8.23730
       O    -1.84692  -11.60763   -7.68252
      H1    -2.63379  -12.03753   -7.32842
       H    -1.15572  -13.09224  -10.13344
       O    -1.63392  -13.08174  -10.97428
      H1    -2.46861  -13.51734  -10.76851
       H    -5.56871  -10.54882   -9.17611
       O    -6.51325  -10.76991   -9.09420
      H1    -6.94718   -9.91724   -8.97406
       H    -0.96471   -8.13321   -7.37967
       O    -0.62445   -9.02191   -7.47141
      H1    -0.77736   -9.45953   -6.59435
       H    -4.20798  -12.67020   -6.06047
       O    -4.48283  -12.51663   -6.96167
      H1    -5.31755  -12.00964   -6.89342
       H    -3.59303  -11.15355  -12.54476
       O    -3.06040  -10.92626  -11.77213
      H1    -2.54247  -11.70368  -11.52100
       H    -3.56365  -10.34777  -10.19060
       O    -3.84305  -10.26636   -9.25155
      H1    -3.54743   -9.35018   -9.09708
       H    -1.73428  -15.46210   -8.37047
       O    -1.98883  -15.77423   -9.23171
      H1    -1.44613  -16.55023   -9.28319

