60
frame 2 | Written by MDAnalysis XYZWriter (release 2.4.3)
       H   -12.64516   -3.75206    2.53262
       O   -11.84606   -4.12703    2.94025
      H1   -11.12439   -3.74218    2.44726
       H    -6.30869   -4.77423    4.15350
       O    -6.37268   -4.67925    3.19030
      H1    -5.98248   -5.49206    2.82295
       H   -11.64025   -1.31027    4.30942
       O   -11.38005   -1.78729    5.08942
      H1   -10.52203   -1.46234    5.31948
       H    -8.39336   -3.72528    0.20079
       O    -7.91600   -3.75601   -0.63570
      H1    -8.39636   -4.46489   -1.06650
       H    -8.98687   -4.69552    2.07500
       O    -9.24155   -3.80365    1.74269
      H1    -8.64920   -3.20887    2.28618
       H    -5.71088   -1.09358    3.17655
       O    -5.01283   -0.47154    3.41218
      H1    -4.26063   -1.05339    3.63110
       H    -7.65243   -0.82381    2.12016
       O    -7.65469   -1.57377    2.76885
      H1    -8.23970   -1.21662    3.42707
       H    -7.97730    0.45048    0.13244
       O    -7.27487    0.29612    0.78007
      H1    -6.69082   -0.33402    0.35093
       H    -8.35845    1.88759    3.83639
       O    -8.61860    1.47065    4.66308
      H1    -8.41369    2.11290    5.36480
       H    -8.29441   -0.29007    5.86232
       O    -8.58973   -1.19939    5.79834
      H1    -8.90374   -1.41293    6.68379
       H    -4.11268   -4.73158    6.24491
       O    -4.50132   -4.40452    5.43027
      H1    -5.26780   -3.86824    5.73829
       H    -9.04017   -1.31406   -1.38982
       O    -9.06788   -0.36185   -1.49824
      H1    -9.85136   -0.08846   -1.01431
       H    -6.87996   -1.89220    5.92635
       O    -6.10181   -2.36634    6.27673
      H1    -6.31502   -2.53077    7.19677
       H    -6.70334   -2.40013   -0.50589
       O    -5.97412   -1.85367   -0.20766
      H1    -5.67836   -2.29275    0.60352
       H    -7.20659    3.49097    2.20787
       O    -7.96751    2.90648    2.31332
      H1    -8.20118    2.74694    1.40450
       H    -4.66466    1.70121    0.02280
       O    -4.72630    1.64568    1.00453
      H1    -5.58404    1.20204    1.07303
       H    -5.65424    1.32868    4.38670
       O    -5.36575    2.17918    4.66775
      H1    -5.82737    2.30415    5.49099
       H    -7.88391   -6.23145    6.00463
       O    -7.61059   -5.33267    6.02497
      H1    -8.43602   -4.86711    5.79396
       H    -5.08527   -3.79927    2.44691
       O    -4.68759   -3.29335    1.72844
      H1    -3.90608   -2.85971    2.12005
       H   -12.10697    0.68349    0.50131
       O   -11.31113    0.20465    0.25788
      H1   -11.05052   -0.19354    1.08814

