60
frame 2 | Written by MDAnalysis XYZWriter (release 2.4.3)
       H   -12.64516   -3.75206    2.53262
       O   -11.84606   -4.12703    2.94025
      H1   -11.12439   -3.74218    2.44726
       H   -13.35167   -5.59343    7.72853
       O   -14.26496   -5.55347    8.07719
      H1   -14.66543   -4.87755    7.54614
       H   -14.84742   -1.90866    4.96559
       O   -15.49016   -2.14953    4.31066
      H1   -16.27478   -1.65878    4.58668
       H   -12.95217   -5.07274    4.14571
       O   -13.05919   -5.66770    4.88326
      H1   -14.01471   -5.82002    4.96384
       H   -16.89108   -1.42120    0.69071
       O   -17.62589   -1.29782    1.29231
      H1   -18.00878   -2.17174    1.34219
       H   -11.64025   -1.31027    4.30942
       O   -11.38005   -1.78729    5.08942
      H1   -10.52203   -1.46234    5.31948
       H   -14.38841   -1.70135    9.14760
       O   -13.49416   -1.74797    8.88396
      H1   -13.46256   -1.74303    7.90021
       H   -15.62603    1.69032    6.39686
       O   -15.27142    0.80975    6.46976
      H1   -16.09692    0.25940    6.43669
       H   -13.19907    1.44010    4.51086
       O   -13.97076    1.06423    4.07243
      H1   -14.60127    0.94782    4.78206
       H   -18.34577   -4.51092    0.44977
       O   -18.64551   -4.13993    1.29587
      H1   -17.95240   -4.46195    1.88977
       H   -14.78844   -3.97371    1.45634
       O   -14.26616   -3.36426    2.01911
      H1   -14.84602   -2.98423    2.65294
       H   -12.96011   -0.10254    3.23594
       O   -12.40829   -0.75797    2.81511
      H1   -13.12830   -1.36533    2.57996
       H   -18.18063   -1.20143    7.45850
       O   -17.22700   -1.34198    7.43619
      H1   -17.07950   -2.14068    7.97744
       H   -15.75819   -3.31741   -0.12353
       O   -15.76875   -2.34885   -0.31187
      H1   -14.89290   -2.02162   -0.02094
       H   -15.38632    1.75284    1.32387
       O   -16.05558    1.61922    1.99402
      H1   -16.13848    0.67164    1.96709
       H   -18.39599   -1.23524    4.32093
       O   -17.72005   -0.59192    4.07728
      H1   -17.49492   -0.80182    3.18285
       H   -16.67484   -4.19765    9.10742
       O   -17.00420   -3.87429    8.25735
      H1   -17.97220   -3.98967    8.27715
       H   -13.92205   -0.53103    6.30525
       O   -13.75499   -1.49248    6.26418
      H1   -12.93023   -1.54074    5.79331
       H   -16.76821   -6.13828    2.79496
       O   -16.78993   -5.18532    2.94475
      H1   -16.40326   -5.02104    3.80422
       H   -16.38181   -4.63967    6.66055
       O   -15.82919   -4.66295    5.87906
      H1   -15.74708   -3.73044    5.61101

