60
frame 3 | Written by MDAnalysis XYZWriter (release 2.4.3)
       H    -3.68728    3.50091   -7.36385
       O    -3.63027    4.02221   -6.57091
      H1    -2.81819    4.52341   -6.68448
       H    -2.45764    1.15515   -6.56763
       O    -3.44257    1.16085   -6.64662
      H1    -3.63760    2.02611   -6.31151
       H    -3.50255    1.30176   -3.35497
       O    -3.81842    2.18997   -3.18698
      H1    -3.09754    2.55312   -2.66150
       H    -7.05112    1.68483   -3.20471
       O    -7.10633    0.98732   -3.86688
      H1    -8.01126    0.68505   -3.83152
       H    -6.07275   -3.00356   -2.51274
       O    -5.76677   -2.24253   -3.00864
      H1    -4.88023   -2.05517   -2.64216
       H    -0.50699    1.94558   -5.39766
       O    -0.83525    1.04553   -5.50719
      H1    -0.24142    0.68612   -6.15985
       H    -5.35477    5.64417   -1.26520
       O    -6.06351    5.23129   -1.82366
      H1    -5.62428    5.23439   -2.68125
       H    -7.26098    0.24047   -1.16549
       O    -6.81572    0.15020   -0.28905
      H1    -6.49978   -0.76963   -0.32203
       H    -1.31797    2.47488   -1.51459
       O    -1.94641    3.22427   -1.46268
      H1    -2.21091    3.30178   -0.53513
       H    -1.82883   -0.67998   -3.99200
       O    -1.52209   -1.06609   -3.17456
      H1    -2.30881   -1.24450   -2.64612
       H    -3.53486   -1.21353   -1.29643
       O    -3.43532   -2.12627   -1.65966
      H1    -4.06235   -2.56716   -1.08556
       H    -4.47683   -1.75793   -6.63185
       O    -3.59788   -2.05295   -6.37752
      H1    -3.55925   -1.70618   -5.47869
       H    -0.53873    4.21417   -1.44879
       O     0.39200    4.50132   -1.34606
      H1     0.38536    5.11828   -0.57449
       H    -2.52640   -0.02868    0.67886
       O    -2.98941    0.20151   -0.13204
      H1    -3.39115    1.06925    0.04356
       H    -4.76600   -0.36623   -4.16456
       O    -3.81617   -0.33853   -4.28656
      H1    -3.64662    0.14955   -5.11676
       H    -6.76632    1.07418   -5.56378
       O    -6.39738    1.15662   -6.45967
      H1    -6.56660    0.28038   -6.81992
       H    -4.89901    4.43886   -5.15135
       O    -5.59693    4.23967   -4.48427
      H1    -5.29825    3.43523   -4.05453
       H    -4.95066    2.92171   -1.21420
       O    -4.93062    2.36638   -0.38992
      H1    -5.49325    1.61345   -0.60420
       H     1.38926   -2.28110   -3.60519
       O     0.49298   -2.70606   -3.65911
      H1    -0.13015   -1.99507   -3.48447
       H    -1.54287    0.70840   -0.88761
       O    -0.83056    0.85051   -1.53105
      H1    -1.06465    0.26172   -2.28095

