60
frame 6 | Written by MDAnalysis XYZWriter (release 2.4.3)
       H    10.19808    6.78749   18.44302
       O    10.60246    6.14176   18.95471
      H1    10.63965    5.32832   18.45537
       H     4.55750   11.38093   16.81522
       O     4.38423   10.44046   16.71155
      H1     5.07085   10.03191   17.23756
       H    10.62519    8.59189   17.58669
       O     9.69493    8.28420   17.61261
      H1     9.27675    8.74466   18.33544
       H     8.56055    3.39000   16.83520
       O     7.66119    3.04688   16.86438
      H1     7.22436    3.22812   15.98780
       H     5.16825    5.52341   18.71854
       O     4.94534    6.49457   18.72637
      H1     5.18012    6.76634   17.84758
       H     3.68291    6.27195   16.54804
       O     4.27881    6.84985   16.00772
      H1     3.72325    7.07639   15.27392
       H     4.34028    2.88153   14.79040
       O     4.44578    1.95777   14.62404
      H1     3.71508    1.62238   15.19336
       H     5.06406    5.41289   15.00749
       O     5.24793    4.81997   14.27560
      H1     4.47027    4.91241   13.65798
       H     2.33071    9.59794   14.52033
       O     2.03861    9.45162   15.46988
      H1     2.85238    9.50715   16.01513
       H     7.01690    2.14564   13.86720
       O     7.34655    3.03148   13.98781
      H1     6.56129    3.58350   14.00059
       H     2.69095    1.63913   19.49397
       O     3.54887    1.39102   19.12431
      H1     3.98730    2.30259   18.95131
       H     8.80462    5.32923   13.99383
       O     8.10191    5.97037   13.83298
      H1     7.22557    5.67179   13.99587
       H    -0.60089    5.96268   18.36624
       O    -0.48669    6.36195   17.47897
      H1    -0.09601    7.19475   17.58667
       H     1.11632    5.88731   15.43682
       O     1.29981    6.30094   14.64654
      H1     1.70638    7.19934   14.87387
       H     2.09198    4.96270   17.83754
       O     2.48545    4.94576   16.93164
      H1     2.35079    3.95287   16.76716
       H     1.66743    1.83514   16.12056
       O     2.54603    2.01368   16.57167
      H1     2.51073    1.56430   17.38307
       H     5.92246    3.40520   17.89639
       O     5.62315    3.61880   18.78145
      H1     6.41385    3.58295   19.34860
       H     9.25175    2.04464   19.26391
       O     9.86844    1.37753   18.97706
      H1    10.59196    1.41679   19.60975
       H     7.00133    9.31395   19.00119
       O     6.73759   10.01823   18.38414
      H1     7.46672   10.61616   18.25583
       H     8.14149    9.42771   15.00223
       O     7.32216    9.79574   15.41811
      H1     7.35476    9.36340   16.26145

