60
frame 3 | Written by MDAnalysis XYZWriter (release 2.4.3)
       H    17.94953   -3.42881  -16.39882
       O    17.70915   -4.09666  -15.70043
      H1    16.87675   -4.48861  -15.92992
       H    15.27997  -11.14210   -9.51243
       O    15.86202  -10.53616   -9.97833
      H1    16.72944  -10.58038   -9.52814
       H    17.76710   -8.44639  -13.87472
       O    17.19291   -7.78518  -14.24698
      H1    17.34857   -7.05804  -13.60623
       H    13.07022   -5.23422  -15.41092
       O    12.11545   -5.34231  -15.54160
      H1    11.74887   -4.62382  -14.98642
       H    14.94123  -10.21598  -13.67934
       O    14.68571  -11.15112  -13.76498
      H1    15.39135  -11.52831  -14.30954
       H    15.11058   -6.20904  -14.61478
       O    15.03822   -5.35168  -15.07366
      H1    14.82708   -4.66460  -14.42911
       H    14.20040   -3.29654  -12.08477
       O    14.90803   -3.93110  -12.20248
      H1    15.68575   -3.38351  -12.12775
       H    18.67455   -5.97435  -16.21790
       O    18.85289   -6.90361  -16.23574
      H1    18.38130   -7.20649  -15.46327
       H    16.46153   -7.31896  -19.27191
       O    16.70036   -6.61709  -18.65016
      H1    17.34924   -7.02663  -18.07292
       H    18.75861   -6.76928   -9.10316
       O    18.37288   -7.33895   -9.78138
      H1    17.50539   -6.94324  -10.01572
       H    13.29345   -6.62221  -10.18901
       O    13.13805   -5.71253   -9.89066
      H1    13.32288   -5.81510   -8.94840
       H    17.40385   -5.72815  -11.94481
       O    18.11595   -5.66960  -12.59576
      H1    18.24460   -4.73431  -12.68200
       H    17.89460   -1.86174  -12.06160
       O    17.54351   -2.75049  -11.78688
      H1    18.26141   -3.01358  -11.18150
       H    17.30521   -0.64666  -13.74796
       O    16.46367   -1.12358  -13.81891
      H1    16.73825   -2.02022  -13.84320
       H    11.63659   -8.32034  -15.66423
       O    12.08468   -8.95447  -15.10804
      H1    12.94020   -8.48142  -14.89595
       H    15.73054   -6.77940  -10.65362
       O    16.17199   -5.90010  -10.60889
      H1    15.46072   -5.30094  -10.85175
       H    14.56658   -8.66606  -12.40325
       O    14.54767   -8.47318  -13.35641
      H1    15.46086   -8.14337  -13.51929
       H    13.69570   -8.59229  -10.56991
       O    14.58357   -8.30933  -10.56216
      H1    14.98577   -9.00783  -10.01689
       H    19.17736  -11.06928  -14.50967
       O    18.63918  -10.39487  -14.08541
      H1    19.22261  -10.07737  -13.35790
       H    19.01511   -8.91580  -18.86026
       O    18.24519   -8.89543  -18.27357
      H1    18.57246   -8.49829  -17.46764

