60
frame 3 | Written by MDAnalysis XYZWriter (release 2.4.3)
       H   -10.83833    0.10921   10.34136
       O   -10.98151    0.64841   11.13668
      H1   -11.59442    0.15912   11.71139
       H    -7.73430    1.13206    8.16539
       O    -8.58089    1.25513    8.59353
      H1    -8.30708    1.68228    9.42722
       H    -4.53593   -1.97100    9.08375
       O    -3.75936   -1.98814    8.49826
      H1    -4.14613   -2.01194    7.63316
       H   -10.02230   -3.12526   11.29991
       O    -9.09060   -2.84654   11.43281
      H1    -8.64046   -3.62057   11.72945
       H    -9.22522   -0.32218   14.04301
       O    -9.07063   -1.22199   13.74707
      H1    -8.97015   -1.14970   12.79382
       H    -7.30001   -5.06075   11.54713
       O    -7.66070   -4.87788   12.43230
      H1    -8.47135   -5.39663   12.49477
       H    -8.88772   -0.01112    5.48909
       O    -8.71257   -0.94429    5.62392
      H1    -7.85786   -0.96438    6.09768
       H    -5.97119   -0.77372    6.83056
       O    -6.30626   -1.66520    6.66948
      H1    -6.94997   -1.82524    7.36697
       H    -5.94183   -2.88943   10.62749
       O    -5.45740   -2.06875   10.57878
      H1    -4.83597   -2.11612   11.31515
       H    -7.67851   -3.47100    9.35143
       O    -7.51434   -4.38321    9.64827
      H1    -7.04481   -4.78098    8.90951
       H    -8.56075   -5.65987   10.18832
       O    -8.89364   -6.57652   10.24304
      H1    -9.76253   -6.51742   10.63376
       H    -5.73958   -0.41467   11.39168
       O    -5.68961    0.52732   11.52987
      H1    -5.13667    0.81315   10.81200
       H   -11.23996   -5.14690    8.29289
       O   -10.55636   -4.53273    8.02407
      H1   -10.75519   -4.37386    7.11126
       H    -9.08265   -5.04449    6.76773
       O    -8.31822   -5.07271    6.17249
      H1    -8.75187   -4.79694    5.36557
       H   -11.42923    0.00828    8.27909
       O   -10.79591   -0.66871    8.56542
      H1    -9.92636   -0.19925    8.44606
       H   -11.08104   -3.39884    9.35028
       O   -11.58603   -3.47107   10.20993
      H1   -12.51393   -3.52724    9.87673
       H    -7.15702    3.01058   11.01802
       O    -7.75949    2.28342   11.14909
      H1    -7.15478    1.55269   11.28128
       H    -7.80793   -1.64126    9.76320
       O    -8.16415   -1.79408    8.87995
      H1    -9.10743   -1.84270    9.02102
       H   -11.61842   -1.23406    7.16375
       O   -12.16832   -1.76670    6.55002
      H1   -11.51976   -2.39998    6.24513
       H    -5.70163    1.77182    7.28156
       O    -5.91332    1.04339    7.89431
      H1    -5.19648    1.17407    8.57070

