60
frame 2 | Written by MDAnalysis XYZWriter (release 2.4.3)
       H     4.30576    6.48729   15.35267
       O     3.99937    5.82083   14.71586
      H1     4.72623    5.16871   14.60399
       H     2.80491    8.20643   11.53731
       O     3.30579    8.46166   10.74172
      H1     2.61191    8.65770   10.05350
       H     5.40546    7.80915   17.16232
       O     5.49617    7.19228   16.42595
      H1     5.76867    7.72004   15.66649
       H     2.93070   13.56439   13.86542
       O     3.31888   14.35436   14.25928
      H1     3.08616   14.24996   15.18056
       H     1.49609    8.18354   13.68363
       O     1.45779    8.02117   12.72530
      H1     1.20836    8.88383   12.36380
       H    -0.62311    7.42210   14.81785
       O    -0.07948    6.74876   15.24007
      H1     0.60333    7.21523   15.74353
       H     2.19975    5.65282   16.24626
       O     2.13117    6.37919   16.85835
      H1     2.02075    5.95119   17.69683
       H     1.59375   10.27708   14.89620
       O     1.65505    9.35979   15.30807
      H1     2.39264    9.42117   15.91182
       H    -0.73979    9.96232   17.98819
       O    -0.18605   10.76024   17.99965
      H1     0.58550   10.56585   17.43053
       H    -0.54950    5.67192   12.59631
       O     0.32669    5.50960   12.20581
      H1     0.80610    6.29569   12.53533
       H     4.38712   11.74840   14.63743
       O     5.31149   11.65592   14.86524
      H1     5.78513   11.85885   14.06053
       H    -0.89270   13.05641   12.64832
       O    -0.57903   12.50544   13.33953
      H1    -1.08195   11.67290   13.20756
       H     2.53427   11.74886   13.11000
       O     1.96865   11.95835   13.86461
      H1     1.13628   12.33500   13.51205
       H     6.33580   10.26551   17.65187
       O     5.52849    9.97210   17.22189
      H1     5.40795   10.59221   16.49977
       H    -2.52791    9.28329   13.63695
       O    -2.28904   10.15047   13.27408
      H1    -3.05717   10.39301   12.75016
       H     3.18502   11.76937   17.21455
       O     2.94317   10.87666   17.49041
      H1     3.72018   10.32948   17.44761
       H     3.95924    7.73498   18.80427
       O     3.09624    8.06869   18.54383
      H1     2.78155    7.52547   17.77332
       H    -0.30577    5.30199   16.46600
       O    -0.30777    4.37305   16.80182
      H1     0.24430    4.45322   17.59059
       H     3.69886   10.43454   11.46965
       O     4.22252   11.06713   12.00366
      H1     4.09531   11.91578   11.55044
       H    -0.54095   10.52619   10.76578
       O    -0.32556    9.90166   11.46276
      H1    -1.07416   10.01303   12.05608

