60
frame 2 | Written by MDAnalysis XYZWriter (release 2.4.3)
       H    18.19563  -14.57956  -15.21678
       O    17.36608  -14.34865  -14.76424
      H1    16.80953  -13.93455  -15.46402
       H    11.97361  -10.39244  -19.31471
       O    11.70457  -10.07887  -18.46394
      H1    10.80266  -10.37752  -18.40063
       H    14.12338  -16.90412  -15.77753
       O    13.32618  -17.37035  -16.06258
      H1    12.59313  -16.80518  -15.75108
       H    16.45386  -13.30863  -17.60558
       O    15.87541  -13.64237  -16.94163
      H1    15.26453  -14.18957  -17.43990
       H    11.80745  -13.34273  -16.82388
       O    11.39819  -14.21356  -16.94700
      H1    10.53952  -14.11546  -16.54719
       H    10.55894  -10.01061  -14.89036
       O     9.83387   -9.39465  -15.00019
      H1     9.96087   -9.15291  -15.92818
       H    13.01113  -14.99801  -17.49751
       O    13.80804  -15.26442  -17.98375
      H1    14.15750  -16.03653  -17.51939
       H    13.38967  -12.26192  -17.33440
       O    12.69726  -11.99313  -16.72140
      H1    12.34385  -11.20433  -17.17863
       H    14.82222  -11.30948  -14.48247
       O    15.36701  -12.08590  -14.64331
      H1    15.40531  -12.21016  -15.58994
       H     8.95515  -12.36596  -15.21219
       O     8.56385  -11.75040  -15.82694
      H1     8.56037  -10.88561  -15.37228
       H    11.86603   -7.40875  -13.15901
       O    10.95088   -7.73559  -13.26517
      H1    11.03033   -8.32593  -14.03935
       H    15.04942   -8.10531  -18.71183
       O    14.71102   -8.99393  -18.88745
      H1    13.74823   -8.87827  -18.82270
       H    13.78370  -13.85638  -14.66225
       O    13.50427  -14.59571  -14.06106
      H1    14.31218  -14.83475  -13.60642
       H     8.04478  -14.40684  -16.52488
       O     8.74989  -14.77357  -15.95431
      H1     8.37743  -15.56423  -15.54879
       H     9.03602  -11.48228  -17.47393
       O     9.32791  -11.28730  -18.38760
      H1     9.22070  -12.11799  -18.87669
       H    12.74274  -13.45341  -12.97083
       O    12.02252  -13.28146  -12.33115
      H1    11.38018  -13.97335  -12.44834
       H    13.32729   -9.52952  -14.77913
       O    13.56194  -10.05922  -14.02432
      H1    14.09487   -9.38978  -13.51138
       H    11.96861  -10.41841  -13.23288
       O    11.10893  -10.53391  -12.86222
      H1    11.13989  -11.43185  -12.53370
       H    12.38230   -7.44550  -15.64726
       O    12.40313   -8.33899  -15.97203
      H1    12.27615   -8.21707  -16.92801
       H    15.76707   -9.92541  -17.76668
       O    16.62349  -10.20251  -17.31458
      H1    17.13654   -9.38793  -17.16297

