60
frame 2 | Written by MDAnalysis XYZWriter (release 2.4.3)
       H    -4.93295   -1.71594  -17.49081
       O    -5.65270   -2.13555  -16.97743
      H1    -5.36003   -3.04902  -16.93809
       H     3.75928   -0.42297  -17.91621
       O     3.12004   -0.35191  -17.21428
      H1     2.68134   -1.21600  -17.26137
       H     2.44128    4.30348  -19.20080
       O     1.51275    4.51103  -19.00918
      H1     1.48492    4.97162  -18.14804
       H     0.32645   -1.97359  -16.88837
       O     1.15005   -2.32352  -17.20076
      H1     1.03066   -3.27740  -17.14375
       H    -3.68038    1.48648  -14.96689
       O    -3.65260    1.57253  -15.92205
      H1    -2.84701    2.03517  -16.10004
       H    -4.76137    1.39653  -17.28550
       O    -5.25709    1.67261  -18.08727
      H1    -5.52865    2.56499  -17.87035
       H    -3.58752   -2.29896  -15.35192
       O    -3.32974   -1.55351  -14.79035
      H1    -2.74793   -2.06620  -14.19623
       H    -3.01582    5.19103  -15.81799
       O    -2.99814    4.90190  -16.76681
      H1    -2.02853    4.82659  -16.92725
       H    -1.92806    1.72585  -18.53834
       O    -1.53096    1.48820  -17.70626
      H1    -0.61356    1.37636  -17.92393
       H     1.04500    2.89089  -17.95779
       O     1.26254    2.37079  -17.18206
      H1     0.89594    2.86920  -16.44110
       H     0.04815    5.24399  -16.01723
       O    -0.28115    4.44678  -16.43029
      H1    -0.57069    3.91826  -15.64657
       H     0.17003    0.03433  -15.30587
       O     0.96266    0.47206  -14.97456
      H1     1.51024    0.63618  -15.78473
       H    -3.30783   -1.43261  -19.05963
       O    -3.45908   -1.62066  -18.12831
      H1    -2.61027   -1.47684  -17.66743
       H    -4.59107    1.01915  -12.88382
       O    -3.70441    0.89650  -13.25424
      H1    -3.70436    0.04204  -13.67146
       H    -0.29448    2.03606  -13.94888
       O    -0.75948    2.87052  -14.12630
      H1    -0.28040    3.48425  -13.54256
       H    -1.80001   -1.28750  -15.82855
       O    -1.12360   -0.96545  -16.41813
      H1    -1.51475   -0.20908  -16.90796
       H    -3.70823    4.25297  -13.06504
       O    -2.79797    4.06538  -12.76581
      H1    -2.49149    3.44319  -13.43070
       H    -5.83594    5.08569  -16.62408
       O    -5.76879    4.14084  -16.52264
      H1    -5.30206    3.99660  -15.71255
       H    -1.33632    6.84304  -19.11963
       O    -0.67416    7.28943  -18.59354
      H1    -1.01855    7.10611  -17.70981
       H    -1.25690   -3.33163  -19.34289
       O    -1.99058   -3.93752  -19.25202
      H1    -2.14200   -3.85221  -18.31853

