60
frame 3 | Written by MDAnalysis XYZWriter (release 2.4.3)
       H    -8.37926  -16.91177   11.17547
       O    -7.57697  -16.41384   11.03372
      H1    -6.97727  -17.05836   10.62275
       H    -0.24442  -13.19395    9.60711
       O    -0.78478  -13.40046   10.37660
      H1    -0.86626  -14.36209   10.32890
       H   -10.10702  -16.91552   12.18237
       O    -9.81623  -17.73383   11.71203
      H1    -9.18511  -18.13376   12.30847
       H    -3.63128  -15.63587    8.49275
       O    -4.53212  -15.63230    8.87191
      H1    -4.48679  -14.96064    9.59672
       H    -6.93420  -11.70255   12.06442
       O    -7.00977  -12.16774   11.22423
      H1    -6.19785  -12.69269   11.21759
       H    -8.85848  -16.25571    7.25253
       O    -9.41236  -16.92417    6.87425
      H1    -9.99144  -16.42853    6.29710
       H    -6.39011  -13.93562    7.04998
       O    -5.59871  -14.31668    6.69097
      H1    -5.25904  -14.83211    7.46342
       H    -2.44770  -16.30603    6.69738
       O    -2.38035  -15.62820    7.38575
      H1    -1.95099  -14.85021    6.97175
       H    -6.70917  -19.04909    9.24519
       O    -7.18769  -18.51663    8.61077
      H1    -8.09337  -18.78477    8.73822
       H    -9.42524  -14.37586    9.95634
       O    -8.92401  -13.66714    9.51386
      H1    -8.29678  -13.35899   10.17190
       H    -5.24411  -16.60423   14.63225
       O    -5.21811  -17.11790   15.43262
      H1    -5.69810  -17.91065   15.16738
       H    -2.57550  -18.57412   12.07722
       O    -2.83442  -17.64832   12.11746
      H1    -2.27346  -17.19383   11.43325
       H    -4.28706  -11.21874    6.83068
       O    -3.71583  -11.91329    7.18449
      H1    -4.32837  -12.65902    7.30457
       H    -4.32293  -13.05778   10.12225
       O    -4.78032  -13.67432   10.75672
      H1    -4.17194  -13.67048   11.48440
       H    -1.65713  -16.42444    9.61874
       O    -1.28289  -16.24470   10.45693
      H1    -0.39554  -16.62850   10.35850
       H    -4.69915  -16.32995   12.64299
       O    -5.37229  -15.78930   13.08158
      H1    -6.20814  -15.90445   12.54291
       H    -6.38515  -15.90796    5.55397
       O    -7.12423  -16.45946    5.24189
      H1    -7.76820  -16.49463    5.96863
       H    -2.67815  -18.27197    5.26153
       O    -3.28996  -17.58839    5.56834
      H1    -4.03321  -18.11563    5.90507
       H    -4.24356  -17.59025   10.79373
       O    -5.01918  -17.87120   10.30091
      H1    -5.18901  -17.16468    9.66259
       H    -1.61072  -18.71826    8.54217
       O    -0.77089  -18.27450    8.34900
      H1    -0.51585  -18.65906    7.49959

