60
frame 5 | Written by MDAnalysis XYZWriter (release 2.4.3)
       H    -6.46791    4.37914   11.03887
       O    -5.97868    4.85739   11.78088
      H1    -5.48213    4.16175   12.18589
       H    -9.07608    9.43397    7.68514
       O    -8.17642    9.41770    7.89754
      H1    -7.96708    8.54299    8.27349
       H   -10.22919    8.07076    9.59077
       O   -10.67234    7.49200    8.93680
      H1   -11.64794    7.61879    9.07853
       H   -10.16202    4.27388    7.58548
       O   -10.01822    3.57334    8.25853
      H1    -9.10946    3.66075    8.58116
       H    -1.87595    4.54799    9.15712
       O    -2.66650    4.02092    9.00649
      H1    -3.41484    4.60947    8.80822
       H    -7.36484    9.40621   10.34021
       O    -7.30356   10.19904   10.83409
      H1    -7.34441    9.92551   11.73022
       H    -8.65266    3.80168   11.24565
       O    -8.90310    3.05286   11.84264
      H1    -9.63420    2.69099   11.32154
       H    -3.86408    6.60727    9.95184
       O    -4.05743    6.79591    9.06000
      H1    -4.18325    7.78315    8.99311
       H    -8.92444    5.91719   12.55116
       O    -9.34429    6.49323   11.92204
      H1    -9.94146    5.80737   11.55545
       H   -10.59358    6.31732    7.43035
       O   -10.64367    5.80970    6.61005
      H1   -11.64605    5.77902    6.47560
       H    -7.59578    5.29117    9.40612
       O    -7.50867    4.33468    9.45921
      H1    -6.87075    4.05344    8.83654
       H    -7.66792    6.80879    6.44460
       O    -7.34156    7.59957    6.02055
      H1    -7.76354    8.34340    6.53351
       H    -7.66736    7.63220   15.16345
       O    -6.88949    7.78733   14.59526
      H1    -6.01964    7.64647   15.13942
       H    -4.86860    5.84199    7.46968
       O    -5.45763    5.15380    7.19004
      H1    -5.00907    4.76759    6.44018
       H    -4.21304    9.75822    9.06709
       O    -4.86484    9.22335    8.51480
      H1    -4.62870    9.12292    7.56130
       H    -6.83633    9.41356   14.05925
       O    -7.21142   10.24514   13.70172
      H1    -6.50641   10.91685   13.66787
       H    -7.46001    6.08066   14.15922
       O    -7.78772    5.27373   13.76262
      H1    -7.15006    5.10395   13.04474
       H    -7.95725    6.94919   10.61715
       O    -7.50774    7.00909    9.77154
      H1    -6.63971    7.24427   10.00661
       H    -5.45111   12.58710   10.30292
       O    -5.23759   11.82318   10.78739
      H1    -5.93358   11.15850   10.68379
       H    -5.65865   10.69095    8.02172
       O    -6.08157   11.53071    7.70524
      H1    -7.01344   11.51464    7.79523

