60
frame 2 | Written by MDAnalysis XYZWriter (release 2.4.3)
       H   -13.35319   -0.96261   -9.22410
       O   -13.59830   -0.32009   -8.57811
      H1   -14.47084   -0.08930   -8.91212
       H    -9.79986   -0.95817  -12.33415
       O    -9.16942   -1.61913  -12.63601
      H1    -8.75931   -1.92432  -11.81477
       H   -14.72327    0.70594  -11.05203
       O   -15.40524    0.95414  -10.38369
      H1   -16.00512    0.19478  -10.45047
       H   -10.80644    0.93701  -10.89455
       O   -11.12312    0.15330  -11.39387
      H1   -12.01493    0.40092  -11.64629
       H    -7.83177   -2.89074   -9.87508
       O    -7.77115   -1.99553  -10.20490
      H1    -6.83920   -1.79954  -10.12483
       H   -10.87634   -3.10439   -7.65538
       O   -10.07750   -2.63739   -7.92288
      H1    -9.37010   -3.29633   -7.78356
       H   -11.91354   -0.51672  -14.78897
       O   -12.71406   -0.04008  -15.04119
      H1   -12.35250    0.80881  -15.23753
       H   -11.42241   -1.57460  -10.58449
       O   -11.85502   -2.25757  -10.02507
      H1   -11.19404   -2.48542   -9.37397
       H    -8.99732   -5.44049  -10.00193
       O    -8.39537   -4.85844  -10.50913
      H1    -8.00251   -5.57155  -11.04427
       H   -12.75519   -3.81802   -7.09748
       O   -12.15773   -4.38412   -7.55900
      H1   -12.57970   -4.51603   -8.41236
       H   -14.00305   -5.02175  -10.34670
       O   -14.13111   -4.29794   -9.72737
      H1   -13.60016   -3.65092  -10.18369
       H   -13.24675   -2.32584  -13.87130
       O   -13.76976   -2.49626  -13.06851
      H1   -14.37310   -3.22823  -13.27453
       H   -10.02068   -0.66090   -6.58699
       O   -10.48229   -0.43885   -5.79214
      H1   -10.63647   -1.28298   -5.38483
       H   -11.00532    1.00735   -8.55910
       O   -11.55005    1.66907   -8.97645
      H1   -12.39986    1.25138   -9.06192
       H   -11.08185   -3.41600  -11.09480
       O   -10.80234   -4.09851  -11.70982
      H1    -9.92113   -4.30262  -11.40452
       H    -9.06498   -0.70964   -8.78191
       O    -9.32182    0.10986   -8.34856
      H1    -8.67546    0.77115   -8.63122
       H   -13.94013   -1.01216  -12.50216
       O   -13.67423   -0.12297  -12.23552
      H1   -13.61901    0.28114  -13.11694
       H    -9.16269   -0.60875  -14.25226
       O    -9.68613   -0.13023  -14.89329
      H1    -9.17783   -0.22002  -15.71174
       H   -12.11782   -5.41513  -11.94436
       O   -12.48316   -6.21546  -11.54813
      H1   -13.19502   -6.39118  -12.16489
       H   -10.75472   -2.03267  -15.10222
       O   -11.47109   -2.45904  -14.61207
      H1   -11.04693   -2.57568  -13.74721

