60
frame 2 | Written by MDAnalysis XYZWriter (release 2.4.3)
       H     1.10388  -13.31322   -9.77049
       O     0.83149  -12.64596   -9.16667
      H1     0.41332  -12.01270   -9.72613
       H     8.82613  -13.16572   -7.45131
       O     8.08260  -12.74318   -6.98032
      H1     7.43053  -12.52134   -7.66329
       H     5.56188  -13.21054   -8.34627
       O     6.09108  -12.66615   -8.97300
      H1     6.79083  -13.28244   -9.15738
       H     5.32006  -10.06999   -8.52471
       O     5.74443   -9.82813   -7.66768
      H1     5.26356   -9.04557   -7.42482
       H     7.21864  -13.92456  -12.37775
       O     8.02881  -13.69870  -11.88087
      H1     7.97002  -12.74307  -11.83865
       H     8.04618  -14.57826  -10.13921
       O     7.98126  -14.89559   -9.23555
      H1     8.86888  -15.25554   -9.04181
       H     3.82453  -10.85999  -10.23714
       O     3.29224  -11.66696  -10.08764
      H1     2.53732  -11.31652   -9.65182
       H     2.13218  -15.52470  -13.83689
       O     3.01208  -15.89013  -13.73218
      H1     2.86215  -16.77510  -14.07474
       H     4.20869  -12.85253  -12.41835
       O     4.70971  -13.39744  -11.78942
      H1     4.52708  -13.03413  -10.92646
       H     4.04561  -14.24069  -13.99643
       O     3.81625  -13.35541  -14.28876
      H1     2.89581  -13.25210  -14.10941
       H     5.30386  -11.03912  -14.08994
       O     4.62980  -10.36033  -13.87922
      H1     4.15922  -10.27158  -14.70092
       H     0.98800  -14.91092  -11.51688
       O     1.76406  -14.69510  -10.98110
      H1     2.49267  -14.81594  -11.63162
       H     0.57171  -14.71337   -8.17850
       O     1.35540  -15.27425   -8.08157
      H1     1.42808  -15.68677   -8.96522
       H     3.93078  -13.03245   -7.06667
       O     4.08609  -13.93930   -7.36516
      H1     3.20944  -14.23170   -7.69262
       H     5.67191  -11.26303  -10.33373
       O     5.54560  -10.35941  -10.66825
      H1     5.87894  -10.38123  -11.55438
       H     2.46094  -12.23955  -11.77492
       O     1.86157  -12.10166  -12.50715
      H1     1.01471  -12.37785  -12.11003
       H     8.83433  -10.59721  -12.27909
       O     8.00288  -11.02447  -12.18952
      H1     7.49782  -10.72184  -12.93722
       H     6.19953  -17.16394   -8.41496
       O     6.38211  -17.17940   -9.37008
      H1     7.05249  -16.48333   -9.50144
       H     5.72031  -15.02740  -12.14205
       O     6.27750  -15.70376  -12.55049
      H1     6.93521  -15.94447  -11.92349
       H     6.81340  -12.16186  -15.11267
       O     6.39425  -12.29696  -14.27207
      H1     5.72907  -12.95370  -14.50818

