60
frame 3 | Written by MDAnalysis XYZWriter (release 2.4.3)
       H    15.74091   -3.14166   -3.05637
       O    15.27933   -2.97004   -2.20991
      H1    15.36415   -3.76265   -1.70784
       H    14.39416   -7.07391   -3.24293
       O    14.04947   -6.18057   -3.03576
      H1    13.43631   -6.43192   -2.30718
       H    11.91654   -6.81429   -0.45623
       O    12.23420   -6.06185   -1.00923
      H1    11.47852   -5.85766   -1.55215
       H    12.17193   -6.32053    3.20289
       O    12.15040   -7.26804    3.40280
      H1    11.71035   -7.24373    4.25265
       H    12.22568   -8.46005    1.52835
       O    11.69148   -8.36439    0.75349
      H1    10.94690   -7.89347    1.08902
       H    12.04572   -4.59408   -0.03909
       O    12.26305   -3.91715    0.60279
      H1    11.64379   -3.21739    0.32720
       H    12.18693   -4.42918    2.44678
       O    11.97251   -4.67430    3.35673
      H1    12.71422   -4.36038    3.83134
       H    14.59637   -3.21235    2.78505
       O    14.51821   -3.87422    2.08298
      H1    13.70749   -3.60714    1.64150
       H     9.56538   -8.68226   -2.24430
       O     8.84699   -9.16211   -1.78978
      H1     9.30856   -9.74796   -1.13473
       H    14.19910   -8.89121    1.09362
       O    13.98004   -9.50692    1.81884
      H1    13.59142  -10.18325    1.24904
       H    12.03834   -9.18565   -1.02599
       O    12.72187   -9.03550   -1.67356
      H1    13.34937   -9.78261   -1.69284
       H     9.12641   -6.42089   -1.65755
       O     8.40759   -6.24887   -1.03435
      H1     8.40567   -5.27174   -0.98968
       H     8.50004   -8.41376    1.87316
       O     9.01730   -7.69962    1.41955
      H1     8.42538   -7.38736    0.72510
       H    14.29925   -7.95548   -1.06333
       O    15.09032   -7.74919   -0.51295
      H1    15.06402   -6.78604   -0.36358
       H     9.91134   -3.08235   -1.58461
       O     9.63963   -3.78050   -2.19583
      H1    10.34411   -3.67851   -2.84657
       H    15.32446   -4.83454    0.45185
       O    15.67976   -5.12895   -0.42319
      H1    16.61201   -5.00752   -0.38913
       H    12.92255   -5.59980   -4.31743
       O    12.01612   -5.28458   -4.48177
      H1    11.91337   -5.42000   -5.45125
       H    10.68699   -7.62836   -3.36701
       O    10.17261   -6.94198   -2.92238
      H1    10.07875   -6.29600   -3.63896
       H    12.97641   -2.25857   -3.18252
       O    12.19953   -2.20110   -2.61700
      H1    12.50775   -2.41176   -1.70953
       H    16.31582   -6.52168   -2.63590
       O    17.06269   -6.04464   -2.97714
      H1    16.71389   -5.52059   -3.72754

