60
frame 3 | Written by MDAnalysis XYZWriter (release 2.4.3)
       H    -3.66013    7.43597  -10.76006
       O    -3.13019    7.53716   -9.94963
      H1    -2.56235    6.73161  -10.00453
       H    -6.08826    8.46955   -9.62808
       O    -6.20030    9.03314  -10.42013
      H1    -5.79963    9.89394  -10.22955
       H    -9.86075    7.83012   -8.46283
       O    -9.21728    8.37229   -7.97215
      H1    -8.99430    9.12886   -8.56748
       H    -4.66516    7.54657   -7.35330
       O    -4.86863    8.32840   -7.92163
      H1    -4.21687    8.29270   -8.64008
       H    -3.71819   10.88862  -12.32835
       O    -4.17875   10.46443  -13.09110
      H1    -3.51230    9.92465  -13.56321
       H    -9.29427   11.35291  -12.20647
       O    -8.61962   11.06767  -11.58004
      H1    -8.74498   10.11030  -11.58854
       H    -6.34162   13.78531   -7.53854
       O    -5.49868   13.49977   -7.91763
      H1    -5.05843   12.98627   -7.26443
       H    -6.35803   13.12651  -12.31649
       O    -6.98656   13.17078  -11.58981
      H1    -7.43979   12.32502  -11.64137
       H    -3.21582   12.44441  -11.33586
       O    -2.47681   12.18097  -11.92113
      H1    -1.76671   12.08829  -11.30830
       H    -1.67443   10.56230   -9.51217
       O    -2.49909   10.21226   -9.16415
      H1    -2.61669    9.38941   -9.69695
       H    -2.49836   11.24296   -6.83177
       O    -3.18608   11.86242   -6.61867
      H1    -2.76815   12.68713   -6.86752
       H    -7.86136    7.20363   -9.13601
       O    -7.35528    6.38903   -9.10147
      H1    -8.01798    5.74504   -9.35083
       H    -4.49799    5.17881  -10.04347
       O    -5.39836    5.01384  -10.31289
      H1    -5.98856    5.54530   -9.77854
       H    -8.14066    8.00774  -11.92750
       O    -9.01475    8.42364  -12.04223
      H1    -9.10611    8.32715  -13.03876
       H    -5.47233    7.99358  -11.64554
       O    -5.08079    7.33056  -12.24236
      H1    -5.23431    6.48535  -11.82645
       H    -5.71262   10.23035  -14.18781
       O    -6.45351   10.35788  -14.77113
      H1    -6.53508   11.32223  -14.81925
       H    -6.70653    6.47766  -13.19920
       O    -7.64738    6.39801  -13.37843
      H1    -7.94997    5.69302  -12.77417
       H    -4.92962   12.02942   -9.31124
       O    -4.59515   11.56405  -10.09447
      H1    -3.85198   11.02692   -9.74071
       H    -6.27373    9.66831   -7.12085
       O    -6.91392   10.37165   -6.87593
      H1    -6.78381   10.44295   -5.95262
       H    -8.50434   11.08954   -9.76342
       O    -8.96151   10.87013   -8.93458
      H1    -8.18621   10.86630   -8.34489

