60
frame 3 | Written by MDAnalysis XYZWriter (release 2.4.3)
       H    -9.73175   12.49233   -0.98598
       O   -10.62834   12.79583   -1.05894
      H1   -11.08070   12.16949   -0.46840
       H    -7.19787   12.80283   -1.12765
       O    -7.76677   12.00680   -1.22486
      H1    -7.20378   11.28103   -0.98790
       H   -11.42248   12.42965   -6.18579
       O   -12.33893   12.19240   -6.00228
      H1   -12.45439   12.22268   -5.04885
       H   -11.82178   16.21964   -6.32368
       O   -10.95275   15.82605   -6.47299
      H1   -10.57289   16.46315   -7.11430
       H   -11.73536   14.87233   -3.77133
       O   -10.84095   15.22244   -3.89311
      H1   -10.81805   15.51150   -4.82404
       H    -6.34162   13.78531   -7.53854
       O    -5.49868   13.49977   -7.91763
      H1    -5.05843   12.98627   -7.26443
       H    -6.71186   15.04462   -2.24773
       O    -6.40545   14.49498   -1.51357
      H1    -5.43931   14.51387   -1.55710
       H    -5.69505   13.92068   -3.65924
       O    -6.16674   13.31670   -4.26094
      H1    -7.06507   13.69623   -4.27974
       H   -12.01563   13.04558   -2.41233
       O   -12.80986   13.08212   -2.97992
      H1   -13.56470   12.95524   -2.43054
       H    -7.91607   14.67538   -6.50733
       O    -7.76925   14.80662   -7.44595
      H1    -8.42546   14.29055   -7.92752
       H    -7.97595   16.35010   -3.95636
       O    -8.05148   15.50040   -3.48559
      H1    -8.97228   15.44065   -3.23097
       H    -7.63457   10.87829   -3.34770
       O    -6.71049   10.83621   -3.59799
      H1    -6.49467   11.75664   -3.79739
       H   -10.61352    9.25140   -5.49822
       O   -11.12529    9.03485   -6.27130
      H1   -10.48442    9.06642   -7.00943
       H    -9.77115   11.26637   -4.21625
       O    -9.94079   10.35778   -3.89953
      H1   -10.79201   10.46833   -3.46870
       H    -9.19627   12.42766   -5.73659
       O    -9.18317   12.75316   -4.80357
      H1    -9.79774   13.46497   -4.81293
       H    -6.27373    9.66831   -7.12085
       O    -6.91392   10.37165   -6.87593
      H1    -6.78381   10.44295   -5.95262
       H    -8.50434   11.08954   -9.76342
       O    -8.96151   10.87013   -8.93458
      H1    -8.18621   10.86630   -8.34489
       H   -12.75235   11.32195   -2.42916
       O   -12.17439   10.56087   -2.20746
      H1   -12.63256   10.14924   -1.47727
       H    -8.40383    7.94466   -3.26859
       O    -8.66779    8.42935   -2.46611
      H1    -9.09536    9.22057   -2.80113
       H    -9.91901   12.09928   -7.88073
       O   -10.02977   12.93129   -7.44189
      H1   -10.80644   13.31351   -7.93086

