60
frame 2 | Written by MDAnalysis XYZWriter (release 2.4.3)
       H     8.50458   -0.85387    4.75103
       O     9.21595   -0.91405    4.10676
      H1     9.91394   -1.35853    4.62890
       H    14.11501    1.12078    3.88313
       O    14.46019    0.62493    3.14417
      H1    13.91658   -0.16661    3.26250
       H    11.85464   -5.85545    1.44331
       O    11.45411   -5.00732    1.68009
      H1    11.32608   -4.56444    0.80799
       H    11.48132   -4.95294    3.44821
       O    11.62543   -5.26975    4.37840
      H1    11.54039   -4.48866    4.92100
       H    12.81716   -2.22895    4.17177
       O    13.25302   -2.35636    3.30456
      H1    12.56298   -2.17062    2.64821
       H    14.72970   -1.74495   -0.50848
       O    14.99425   -0.83973   -0.69935
      H1    14.36710   -0.27361   -0.25831
       H     8.04471   -4.78486    2.64564
       O     7.51198   -4.36474    1.93392
      H1     8.12945   -4.30739    1.20183
       H    10.68757    1.94112    4.54018
       O    11.09735    1.17782    4.04860
      H1    10.49206    0.47041    4.25336
       H    11.73216   -1.90842   -2.86040
       O    11.56111   -1.30675   -3.57504
      H1    12.45071   -1.06215   -3.86201
       H     8.86383   -0.43069   -0.45491
       O     8.62358   -0.87632    0.35483
      H1     8.03277   -0.27420    0.81846
       H    12.56359   -3.16465    6.26217
       O    12.12743   -2.50258    5.72734
      H1    12.33562   -1.73568    6.25202
       H     9.78666   -5.67685   -0.00899
       O     9.58215   -6.60677   -0.12914
      H1     8.88495   -6.56115   -0.78745
       H     8.76069   -3.57828   -0.63185
       O     9.51127   -3.76418   -0.03483
      H1    10.04245   -2.96871    0.09177
       H     7.83221   -0.52742    2.53103
       O     7.05216   -0.05883    2.25717
      H1     6.50478   -0.80520    1.99692
       H    11.21766    1.49458    2.12701
       O    11.01477    2.04358    1.31854
      H1    11.55558    2.84135    1.51768
       H     7.66774   -3.34791   -2.48651
       O     7.64333   -2.79797   -1.68036
      H1     8.18266   -2.04286   -1.94258
       H    14.26108   -3.66573   -0.25370
       O    13.62321   -3.21663    0.31274
      H1    13.83950   -3.59395    1.16691
       H    11.74928   -1.20313    0.95757
       O    11.15816   -1.78197    1.40876
      H1    10.25053   -1.51667    1.16999
       H    12.03425   -4.45243   -2.07495
       O    11.83254   -3.60731   -1.67331
      H1    12.49395   -3.50809   -0.96366
       H    11.35770    1.06323   -0.03913
       O    11.29978    0.62340   -0.91395
      H1    12.24463    0.52777   -1.08960

