60
frame 2 | Written by MDAnalysis XYZWriter (release 2.4.3)
       H     1.54174    2.50491    8.30670
       O     2.07786    3.28582    8.45900
      H1     1.60297    3.97721    8.00853
       H    -0.62336    4.68897    7.49097
       O    -0.07384    4.49740    6.71787
      H1    -0.65545    3.96504    6.16218
       H    -1.18566    9.42059    6.60477
       O    -0.59921   10.11732    6.27509
      H1     0.18541    9.61821    6.02325
       H     0.97540    6.80887    9.36821
       O     0.07655    6.95707    9.72910
      H1     0.18134    6.69941   10.63955
       H    -0.53032    7.53218    5.55276
       O    -0.26732    7.29584    6.45187
      H1    -0.07380    6.35620    6.40540
       H     3.23979    6.96651    8.34009
       O     2.35682    6.96781    7.92777
      H1     2.49869    7.58905    7.20020
       H    -5.49361    7.29253    6.87153
       O    -5.51909    7.93437    7.60375
      H1    -4.65143    8.30828    7.62444
       H    -3.93864    2.24995    8.90431
       O    -4.67449    1.67394    8.65618
      H1    -4.31875    0.93761    8.12023
       H    -1.74589    8.16018   11.01328
       O    -2.59363    7.69910   10.97327
      H1    -3.26487    8.28849   11.32585
       H    -3.19475    4.10573    5.69781
       O    -3.58325    4.93781    5.93426
      H1    -3.38164    5.57837    5.21196
       H    -0.54950    5.67192   12.59631
       O     0.32669    5.50960   12.20581
      H1     0.80610    6.29569   12.53533
       H    -2.40578    5.50981    7.65526
       O    -2.11405    5.49293    8.57000
      H1    -1.90890    6.43303    8.69299
       H    -4.69804    5.36706    8.98193
       O    -5.63884    5.12458    8.74755
      H1    -5.77813    5.65393    7.92007
       H    -2.67880    5.71523   11.49116
       O    -2.50262    5.05009   12.17631
      H1    -3.10887    4.33260   11.95177
       H    -2.65947    8.44875    4.13965
       O    -3.34129    7.97704    4.63952
      H1    -3.91484    7.61048    3.92073
       H    -3.19572    9.12356    6.16799
       O    -3.18290    9.41246    7.06684
      H1    -3.42494   10.36782    7.03668
       H     1.37627   10.42233    8.16860
       O     1.48977    9.87240    8.94485
      H1     1.12151    9.05501    8.65374
       H    -1.64120    3.82719    9.58988
       O    -1.98029    2.92798    9.56873
      H1    -2.60087    2.96164   10.31486
       H     1.38603    6.81764    5.37089
       O     2.30408    6.49751    5.26370
      H1     2.53646    6.15993    6.11710
       H    -0.54095   10.52619   10.76578
       O    -0.32556    9.90166   11.46276
      H1    -1.07416   10.01303   12.05608

