60
frame 3 | Written by MDAnalysis XYZWriter (release 2.4.3)
       H     6.39761   -6.44169    4.16411
       O     6.09644   -7.17255    3.65071
      H1     6.11334   -6.74266    2.78581
       H     5.96086   -5.22708    0.99226
       O     5.40141   -6.00491    0.85350
      H1     4.91317   -5.84500    0.04160
       H     4.03700   -2.40928    0.84692
       O     3.98772   -3.32012    0.55720
      H1     4.69706   -3.41910   -0.07048
       H     3.63109   -3.18377    3.86739
       O     2.73187   -3.52933    3.91071
      H1     2.85953   -4.48578    3.77411
       H     7.53817   -8.37635   -0.74467
       O     6.71181   -8.38468   -0.24850
      H1     6.32656   -7.54255   -0.42759
       H     4.01836   -6.72344    4.05467
       O     3.23207   -6.38842    3.56608
      H1     3.13741   -6.96645    2.80419
       H     4.75022   -5.88271   -2.70643
       O     5.41041   -6.19280   -2.11860
      H1     6.24360   -6.04436   -2.58648
       H     2.36687   -5.24859   -1.44692
       O     2.45010   -4.98148   -2.37858
      H1     1.81381   -5.60340   -2.79991
       H     7.89231   -4.54598    2.17228
       O     7.04395   -4.11210    1.98983
      H1     7.34109   -3.31774    1.58404
       H     9.27872   -6.34638    2.64828
       O     9.25656   -5.45317    3.05195
      H1    10.21312   -5.24252    2.94573
       H     5.56255   -3.45035    3.10779
       O     5.18166   -2.61408    3.38497
      H1     5.04160   -2.20246    2.53846
       H     4.72370   -8.09229   -2.87061
       O     3.83294   -8.41427   -3.08845
      H1     3.66008   -8.09627   -4.00251
       H     1.70516   -9.20962   -1.11060
       O     1.86940   -8.25860   -1.09499
      H1     2.53603   -8.17335   -1.77483
       H     8.57462   -9.25217    3.91665
       O     7.97719   -9.42039    3.19092
      H1     7.17501   -8.97945    3.47503
       H     1.24413   -4.58731   -0.32846
       O     1.88743   -5.12568    0.14421
      H1     2.52285   -4.44866    0.41315
       H     9.12641   -6.42089   -1.65755
       O     8.40759   -6.24887   -1.03435
      H1     8.40567   -5.27174   -0.98968
       H     8.50004   -8.41376    1.87316
       O     9.01730   -7.69962    1.41955
      H1     8.42538   -7.38736    0.72510
       H     4.29863   -7.36767    1.31146
       O     3.54701   -7.98079    1.38937
      H1     3.07972   -7.97209    0.54168
       H     4.64847   -9.88633    1.48156
       O     5.09824  -10.32037    0.74904
      H1     5.54466   -9.54332    0.32627
       H     6.48957   -3.61988   -1.92808
       O     6.40495   -3.01394   -1.17865
      H1     6.25663   -2.10842   -1.51340

