60
frame 3 | Written by MDAnalysis XYZWriter (release 2.4.3)
       H    17.18250  -14.68127  -17.14233
       O    17.42603  -13.81075  -16.88340
      H1    16.59610  -13.31879  -16.82923
       H    19.31763   -1.80567  -17.94768
       O    18.63204   -2.08639  -17.30505
      H1    17.81489   -1.72444  -17.67897
       H    14.40833  -12.68736  -17.04234
       O    14.88285  -12.58730  -16.20998
      H1    14.46271  -13.31024  -15.65210
       H    17.94953   -3.42881  -16.39882
       O    17.70915   -4.09666  -15.70043
      H1    16.87675   -4.48861  -15.92992
       H    13.31441  -11.89486  -15.83497
       O    12.39765  -11.59014  -15.79356
      H1    12.44589  -10.65565  -15.57891
       H    17.76710   -8.44639  -13.87472
       O    17.19291   -7.78518  -14.24698
      H1    17.34857   -7.05804  -13.60623
       H    13.46721   -5.36952  -18.37663
       O    13.87342   -5.87893  -19.11371
      H1    14.61884   -6.27702  -18.65482
       H    13.07022   -5.23422  -15.41092
       O    12.11545   -5.34231  -15.54160
      H1    11.74887   -4.62382  -14.98642
       H    14.94123  -10.21598  -13.67934
       O    14.68571  -11.15112  -13.76498
      H1    15.39135  -11.52831  -14.30954
       H    15.11058   -6.20904  -14.61478
       O    15.03822   -5.35168  -15.07366
      H1    14.82708   -4.66460  -14.42911
       H    15.92442  -12.10963  -11.01128
       O    15.85179  -12.64897  -11.81163
      H1    15.52226  -12.01214  -12.47346
       H    18.67455   -5.97435  -16.21790
       O    18.85289   -6.90361  -16.23574
      H1    18.38130   -7.20649  -15.46327
       H    16.46153   -7.31896  -19.27191
       O    16.70036   -6.61709  -18.65016
      H1    17.34924   -7.02663  -18.07292
       H    18.10732  -11.38987  -18.32166
       O    17.50455  -11.66345  -19.01470
      H1    16.63761  -11.40676  -18.66513
       H    15.76558   -2.11734  -18.79398
       O    16.02196   -2.23726  -17.86814
      H1    15.17336   -2.24671  -17.40325
       H    17.40385   -5.72815  -11.94481
       O    18.11595   -5.66960  -12.59576
      H1    18.24460   -4.73431  -12.68200
       H    11.63659   -8.32034  -15.66423
       O    12.08468   -8.95447  -15.10804
      H1    12.94020   -8.48142  -14.89595
       H    14.56658   -8.66606  -12.40325
       O    14.54767   -8.47318  -13.35641
      H1    15.46086   -8.14337  -13.51929
       H    19.17736  -11.06928  -14.50967
       O    18.63918  -10.39487  -14.08541
      H1    19.22261  -10.07737  -13.35790
       H    19.01511   -8.91580  -18.86026
       O    18.24519   -8.89543  -18.27357
      H1    18.57246   -8.49829  -17.46764

