60
frame 0 | Written by MDAnalysis XYZWriter (release 2.4.3)
       H     3.62893   -4.67926    4.44336
       O     4.25162   -5.34136    4.10115
      H1     4.65436   -5.76196    4.86513
       H     5.62204   -1.14955    5.99364
       O     5.60093   -0.27387    5.61327
      H1     6.13993   -0.35361    4.81106
       H     9.93488   -2.03467    2.66272
       O    10.07679   -2.54532    1.88625
      H1     9.54008   -2.05395    1.23465
       H    10.28429   -4.12164    4.84976
       O    10.06265   -4.86578    4.26066
      H1    10.32371   -4.44548    3.44904
       H     3.79241   -1.85738    3.21865
       O     3.61520   -2.39561    4.00094
      H1     4.46639   -2.84645    4.02458
       H     8.70437   -3.96276    1.29254
       O     7.98227   -4.63456    1.30211
      H1     7.90002   -4.84203    0.36367
       H    10.91480   -6.98189    3.15414
       O    11.23711   -6.69247    2.27361
      H1    12.04001   -7.19164    2.14758
       H     5.00709   -3.22221    6.70700
       O     5.86653   -2.80904    6.74188
      H1     6.41143   -3.51592    6.34390
       H     8.11427   -9.88396    5.36551
       O     7.55437   -9.15446    5.65036
      H1     7.28680   -8.74900    4.81243
       H     8.37302   -6.55031    1.59766
       O     8.46585   -7.50328    1.64651
      H1     9.31000   -7.63145    2.13144
       H    11.57146   -3.64568    6.91422
       O    10.61189   -3.74120    6.94685
      H1    10.49296   -4.60136    7.39433
       H    12.15704   -7.75879    4.96120
       O    11.23190   -7.54962    5.13953
      H1    11.22525   -6.57828    5.18759
       H     6.56346   -3.80456    2.11077
       O     5.87458   -3.60884    2.76653
      H1     5.39877   -4.44164    2.77564
       H     8.22587   -4.48597    4.39626
       O     7.38747   -4.35604    4.90680
      H1     6.78427   -4.08244    4.21080
       H     9.20589   -0.08674    4.11361
       O     9.56863   -0.97059    4.12509
      H1    10.46853   -0.77353    4.39068
       H     7.20847   -5.74626    7.46236
       O     7.86883   -5.67045    8.17789
      H1     7.55949   -4.90633    8.69056
       H     6.97663   -7.87685    2.71015
       O     6.60580   -7.93215    3.59903
      H1     5.72728   -8.32920    3.41863
       H     6.88662    0.07977    2.52766
       O     6.72368   -0.58771    3.17944
      H1     7.33780   -1.29292    3.02221
       H     6.64552   -6.04828    5.70612
       O     5.96550   -6.45562    6.29049
      H1     6.09482   -7.42266    6.27004
       H     9.51401   -2.61586    7.58067
       O     8.78986   -2.02608    7.79158
      H1     8.10076   -2.41949    7.25579

