60
frame 3 | Written by MDAnalysis XYZWriter (release 2.4.3)
       H   -10.82142  -12.78794   -6.07791
       O   -11.12979  -11.87442   -6.13069
      H1   -11.92548  -11.93406   -6.66368
       H   -12.48778   -9.11714   -4.54911
       O   -13.39889   -9.00768   -4.88861
      H1   -13.88104   -9.85092   -4.73925
       H   -12.94018  -11.90603   -3.36232
       O   -12.18831  -12.47931   -3.61776
      H1   -11.76640  -11.97714   -4.34978
       H   -11.29751  -17.89717   -3.00332
       O   -11.15392  -17.21465   -3.70171
      H1   -11.84303  -16.56184   -3.53070
       H   -11.87438  -11.60951    1.07965
       O   -12.61070  -11.20235    0.60756
      H1   -13.00550  -10.63882    1.26225
       H   -12.91185   -8.22261   -2.04256
       O   -13.85167   -8.39593   -1.86596
      H1   -13.95394   -8.24691   -0.92820
       H   -14.91218  -11.52902   -3.21868
       O   -14.76033  -11.29195   -4.14840
      H1   -15.09204  -12.07080   -4.61312
       H   -15.35399  -14.65034   -6.16911
       O   -14.89148  -15.48460   -6.26899
      H1   -14.19344  -15.35847   -5.61961
       H   -12.45198  -13.88097    0.66538
       O   -12.38439  -14.83048    0.59014
      H1   -13.10583  -15.16230    1.16273
       H   -13.69812  -11.95439   -8.02045
       O   -13.11277  -11.21449   -7.85999
      H1   -12.77961  -11.07335   -8.75520
       H   -13.95148  -11.44104   -0.77645
       O   -14.73098  -11.11862   -1.23922
      H1   -14.49262  -10.20914   -1.48022
       H   -10.95807  -13.99836   -2.42329
       O   -10.89332  -14.43202   -1.56821
      H1   -11.81368  -14.57774   -1.26460
       H    -8.83635   -9.04295   -4.72181
       O    -9.10664   -9.62814   -4.00327
      H1    -8.24345   -9.92161   -3.60442
       H   -10.40960   -8.98348   -2.91670
       O   -10.97044   -8.32880   -2.50011
      H1   -10.51214   -7.49217   -2.71574
       H   -16.58704  -13.89392   -2.46961
       O   -15.77191  -14.29631   -2.17906
      H1   -15.56574  -13.93719   -1.33025
       H   -10.03764  -15.83031   -4.45479
       O    -9.87936  -15.41028   -5.31827
      H1    -9.54801  -16.18748   -5.81885
       H   -14.24952  -14.54939   -3.16438
       O   -13.52663  -14.79490   -3.75398
      H1   -13.26133  -13.93471   -4.15152
       H   -10.15151  -10.66735   -6.95648
       O    -9.58207   -9.99446   -7.40882
      H1   -10.16747   -9.64092   -8.09290
       H    -8.16482  -12.49718   -3.79053
       O    -7.25688  -12.76088   -3.54808
      H1    -7.37030  -13.41520   -2.86840
       H    -8.95726  -13.29337    0.96808
       O    -9.12380  -13.04820    0.03851
      H1    -9.83560  -13.61843   -0.20974

