60
frame 2 | Written by MDAnalysis XYZWriter (release 2.4.3)
       H     7.26647   -7.95576   14.07218
       O     7.92623   -7.23810   14.03425
      H1     7.93413   -7.07380   13.07762
       H     4.52662   -6.77468   14.74752
       O     4.04317   -7.58855   14.57119
      H1     4.00033   -7.54289   13.58847
       H     9.81838   -8.08274   14.12488
       O    10.77401   -8.25380   14.08489
      H1    11.05378   -7.78432   14.87930
       H     5.36954  -11.16578    7.52674
       O     6.08358  -10.60259    7.18360
      H1     6.00235  -10.54118    6.25464
       H    10.75148   -9.87719   13.05364
       O    10.41941  -10.79102   12.99961
      H1     9.45926  -10.66144   12.89203
       H     4.44377  -11.26239   13.03614
       O     4.41051  -10.47608   12.47732
      H1     4.34126  -10.88813   11.59079
       H    10.42487   -5.85221   11.21798
       O    10.05856   -5.81804   12.12280
      H1    10.77399   -6.13974   12.66642
       H     8.40925   -8.12394    8.95750
       O     9.11389   -8.34625    8.32000
      H1     9.35106   -7.48516    7.94626
       H     3.54396   -6.64101   11.14330
       O     4.11841   -7.21063   11.64637
      H1     4.37875   -7.91431   11.05357
       H     8.40128   -6.90373    5.75926
       O     7.80908   -7.65189    5.76113
      H1     8.23758   -8.30637    6.34684
       H    11.02783   -8.47555   10.15262
       O    11.06298   -8.46516   11.13216
      H1    10.49446   -7.66897   11.32967
       H     4.59846   -9.16521    8.82380
       O     4.69385   -8.99742    9.74856
      H1     5.67810   -9.07970    9.85012
       H    11.20273  -11.10326   11.47579
       O    11.86254  -11.40770   10.81556
      H1    11.62222  -10.81467   10.08667
       H     7.32850  -11.62120   12.38430
       O     7.71802  -10.77495   12.71696
      H1     7.01384  -10.41642   13.28577
       H     8.27006  -10.87749    8.59488
       O     7.91145  -11.71493    8.88632
      H1     7.09861  -11.83509    8.38727
       H     6.41841   -5.94237   10.90462
       O     6.54034   -6.16621   11.82786
      H1     5.69949   -6.55413   12.06633
       H     5.72106   -5.89208    8.37715
       O     5.98087   -5.35100    9.14947
      H1     6.65655   -4.75944    8.80536
       H     7.05679   -7.92471   11.31227
       O     7.15341   -8.56475   10.57834
      H1     7.65417   -9.28947   10.98088
       H     5.59006   -9.58577   13.81718
       O     6.25805   -9.35963   14.47162
      H1     5.76054   -9.12917   15.27726
       H     6.94819  -13.80065   10.98281
       O     6.89311  -13.22423   11.75723
      H1     5.95316  -12.97956   11.82059

