60
frame 3 | Written by MDAnalysis XYZWriter (release 2.4.3)
       H    15.07725   -7.61712    7.59707
       O    15.78446   -7.43280    8.19321
      H1    15.83603   -8.18542    8.79177
       H    17.90230   -5.68778    7.25132
       O    17.64699   -4.97821    6.64893
      H1    17.91027   -5.32345    5.80604
       H    18.43837   -7.65066    0.73877
       O    19.00942   -8.42584    0.60486
      H1    19.40618   -8.11889   -0.22171
       H    14.73366   -3.36767    5.51171
       O    14.14178   -3.93548    5.01820
      H1    14.72884   -4.67259    4.74772
       H    16.62242  -10.55646    0.03633
       O    17.48830  -10.47818   -0.40661
      H1    17.87788   -9.66278   -0.08550
       H    18.01221   -4.73035   -2.13149
       O    18.48257   -4.28934   -1.40761
      H1    19.35908   -4.62879   -1.60541
       H    18.95502   -8.29380    4.31441
       O    18.69223   -8.99134    3.70759
      H1    17.72051   -8.97420    3.68228
       H    15.58516    0.19715    3.96466
       O    15.89670   -0.69354    3.79278
      H1    16.48771   -0.57999    3.01088
       H    14.59637   -3.21235    2.78505
       O    14.51821   -3.87422    2.08298
      H1    13.70749   -3.60714    1.64150
       H    15.63442   -6.91453    3.41513
       O    15.48503   -6.02288    3.69816
      H1    15.21426   -5.53454    2.90207
       H    19.04011   -5.61040    3.68147
       O    18.25920   -5.01189    3.54205
      H1    17.43915   -5.55443    3.59191
       H    18.52485   -0.32920    1.38738
       O    18.41527   -0.23870    2.33290
      H1    18.35820   -1.13516    2.64027
       H    15.40927   -8.99017    2.83576
       O    15.97224   -8.53971    3.47225
      H1    15.51726   -8.67688    4.31547
       H    18.60221   -5.19458    0.23192
       O    18.42544   -5.76014    0.98306
      H1    18.51875   -5.28170    1.80527
       H    15.94258   -1.49197    5.42229
       O    15.45841   -1.96153    6.12143
      H1    15.71980   -1.61265    6.96045
       H    17.95256   -1.79853    6.75822
       O    18.36367   -2.38679    7.39909
      H1    17.96592   -3.21024    7.14462
       H    17.38834   -7.56125    7.70804
       O    18.33258   -7.45526    7.51134
      H1    18.64260   -8.38348    7.52545
       H    14.29925   -7.95548   -1.06333
       O    15.09032   -7.74919   -0.51295
      H1    15.06402   -6.78604   -0.36358
       H    15.32446   -4.83454    0.45185
       O    15.67976   -5.12895   -0.42319
      H1    16.61201   -5.00752   -0.38913
       H    15.87512   -2.30924   -0.69970
       O    15.95093   -1.74796    0.07771
      H1    15.84657   -2.33948    0.81458

