60
frame 3 | Written by MDAnalysis XYZWriter (release 2.4.3)
       H    -1.26739   15.43838  -16.01338
       O    -0.75761   15.14550  -16.77522
      H1    -1.43955   14.95993  -17.48691
       H     0.69141    7.82093  -14.58187
       O    -0.09598    7.76253  -13.98305
      H1    -0.73217    7.28875  -14.50730
       H     3.22361   13.09898  -18.33528
       O     3.66427   12.89812  -17.50206
      H1     4.42819   13.48659  -17.47684
       H     0.68927   12.12846  -17.43261
       O     0.21591   11.49247  -17.98103
      H1     0.57341   10.61519  -17.75930
       H     2.38418    6.19466  -19.52781
       O     1.52126    5.77199  -19.45679
      H1     1.50670    5.50029  -18.52727
       H     2.21474    8.61305  -16.23123
       O     2.52707    8.52746  -15.32534
      H1     3.00498    7.69048  -15.30943
       H    -3.21903    6.41576  -19.30624
       O    -2.79275    6.17439  -18.49640
      H1    -2.03582    6.70250  -18.46098
       H    -1.99567    7.14332  -16.05579
       O    -1.80475    6.26480  -15.68920
      H1    -2.17039    5.65222  -16.34784
       H    -2.41337   12.39521  -15.06970
       O    -2.64213   13.13863  -14.53190
      H1    -2.79841   12.74830  -13.68823
       H     1.10172    8.75352  -17.93936
       O     1.84629    9.34984  -17.84498
      H1     2.13569    9.44602  -18.77212
       H     2.18352   14.02062  -16.16108
       O     1.33980   13.85061  -15.75112
      H1     0.75528   14.35750  -16.34912
       H    -3.82606    9.02855  -16.24881
       O    -3.15828    9.21595  -15.57682
      H1    -2.78428   10.05062  -15.81156
       H     1.87419   11.03679  -14.88609
       O     0.98027   11.04754  -14.49231
      H1     0.73700   11.99960  -14.56369
       H     2.33478   12.54093  -12.68313
       O     2.92133   12.99991  -13.31711
      H1     3.16184   12.28446  -13.92250
       H     5.42576    7.15787  -16.63046
       O     4.59060    7.54106  -16.93913
      H1     4.90359    8.22919  -17.57138
       H    -2.87178   11.77157  -17.66897
       O    -2.42911   11.48669  -16.84174
      H1    -1.49141   11.62971  -17.04061
       H    -0.99249   13.82664  -13.99268
       O    -0.24069   14.19614  -13.53180
      H1     0.46741   14.12278  -14.14427
       H     1.09182    9.36229  -11.57502
       O     1.94624    9.41134  -12.06135
      H1     1.71903    9.83366  -12.90442
       H    -0.66386    8.25660  -18.55751
       O    -0.79142    8.20632  -17.60486
      H1    -1.30230    9.01585  -17.42377
       H     3.54015   11.25329  -16.09291
       O     3.68537   10.97408  -15.16932
      H1     3.70943   10.02534  -15.23517

