60
frame 3 | Written by MDAnalysis XYZWriter (release 2.4.3)
       H     4.93781   14.49545  -11.93767
       O     4.29420   14.28642  -11.27878
      H1     3.77878   13.59387  -11.72790
       H     6.35654   17.86562   -9.50322
       O     6.99716   18.56919   -9.31199
      H1     7.23663   18.93143  -10.19883
       H     1.31954   19.14336  -15.74628
       O     1.16126   18.96311  -14.80623
      H1     1.89116   18.40675  -14.57950
       H     7.36666   18.00124   -7.53504
       O     7.82834   17.95746   -6.67747
      H1     7.17705   18.16009   -5.99957
       H     3.80691   14.70158   -9.42348
       O     3.29292   14.48029   -8.63439
      H1     3.87036   13.89345   -8.11976
       H     4.35986   17.58414  -11.37288
       O     5.14006   17.80836  -11.86963
      H1     5.70233   17.10654  -11.62437
       H     9.63748   15.65924  -10.38088
       O    10.06318   15.37127  -11.19354
      H1    11.00349   15.26672  -10.92184
       H     3.42434   16.50989   -8.09115
       O     3.88912   16.92661   -7.32396
      H1     4.01000   17.82367   -7.66575
       H     2.36057   16.35742  -11.35996
       O     2.43255   16.94122  -10.60727
      H1     1.88765   17.68383  -10.90674
       H     5.93493   12.50072   -9.24827
       O     6.18488   13.37190   -9.63932
      H1     5.41191   13.48077  -10.20399
       H     6.94877   15.32677  -11.52932
       O     7.20036   16.11757  -11.01458
      H1     7.16881   15.83039  -10.06753
       H     8.34822   15.48791  -13.81892
       O     9.23887   15.17360  -13.80981
      H1     9.34007   14.82227  -12.92144
       H    -0.00330   19.37646  -11.80641
       O     0.43240   18.57547  -12.13781
      H1     0.45961   18.78090  -13.08421
       H     1.02146   16.74829   -9.51208
       O     0.38170   16.90800   -8.81161
      H1    -0.41671   16.43917   -9.07568
       H     9.45539   17.17920  -11.59832
       O     9.71724   18.08591  -11.37940
      H1     8.96809   18.60583  -11.67891
       H     5.22988   16.01735   -8.09279
       O     6.08259   15.87564   -8.50046
      H1     6.11554   14.90960   -8.57748
       H     6.58517   13.11204  -12.80846
       O     6.49941   14.06686  -13.00049
      H1     6.09429   14.13574  -13.86181
       H     6.86136   17.08909  -15.45041
       O     7.05478   16.87526  -14.52443
      H1     7.23428   17.77391  -14.20336
       H     2.29751   15.12438  -13.07550
       O     1.97741   16.06055  -13.04725
      H1     2.60236   16.61221  -13.58984
       H     4.39582   17.39589  -15.31995
       O     3.81781   17.81933  -14.67879
      H1     4.34099   17.82359  -13.83800

