60
frame 3 | Written by MDAnalysis XYZWriter (release 2.4.3)
       H   -12.79449   -5.97426   15.73170
       O   -12.91771   -5.34691   15.01922
      H1   -13.80661   -5.64765   14.67702
       H   -12.66373   -1.21444   15.59477
       O   -11.77216   -1.08774   15.26528
      H1   -11.46016   -1.98563   15.29273
       H   -13.90363   -4.02767   17.35913
       O   -14.80322   -3.78146   17.65423
      H1   -15.37234   -4.43633   17.29632
       H   -14.47098   -2.12520   13.26418
       O   -14.47697   -2.28801   12.31564
      H1   -14.39938   -3.26500   12.27149
       H   -18.00321    1.50700   16.02529
       O   -17.92810    1.41734   16.99723
      H1   -17.80829    2.32509   17.32546
       H   -18.13222   -3.63489   17.52588
       O   -18.18239   -2.70367   17.19743
      H1   -17.67800   -2.22729   17.88514
       H   -18.81366   -7.47181   12.12531
       O   -18.47345   -7.93121   12.90016
      H1   -18.62215   -8.85567   12.70856
       H   -12.46216   -1.04332   17.92674
       O   -12.19291   -1.81762   18.43295
      H1   -12.95663   -2.02746   18.98883
       H   -17.52267   -9.31691   17.66910
       O   -18.25823   -8.95339   17.13663
      H1   -18.10555   -8.01290   17.21345
       H   -17.11507   -5.53728   17.43716
       O   -16.29260   -5.83017   17.02190
      H1   -15.90427   -6.44934   17.64003
       H   -13.55859   -7.41848   17.29327
       O   -12.79262   -7.49029   16.73316
      H1   -12.04342   -7.46080   17.37376
       H   -14.50291   -0.94583   16.96928
       O   -14.55970   -1.42544   16.13894
      H1   -14.83599   -2.26998   16.49960
       H   -15.87232   -4.65328   11.98503
       O   -15.03761   -5.05691   11.87038
      H1   -15.15139   -5.58712   11.09562
       H   -15.12633   -8.33438   14.44949
       O   -15.26584   -9.24417   14.73641
      H1   -16.19845   -9.44677   14.50313
       H   -18.36445   -2.22793   15.55557
       O   -18.69094   -1.91096   14.72097
      H1   -18.02768   -1.30435   14.39542
       H   -16.49758   -1.48409   12.55477
       O   -17.19652   -0.80133   12.54552
      H1   -17.32693   -0.70802   11.58943
       H   -17.70813   -9.59547   15.53845
       O   -17.79116  -10.31763   14.86894
      H1   -17.85376  -11.12287   15.42260
       H   -15.20462    1.54230   15.62815
       O   -15.30493    2.00154   16.47466
      H1   -16.07066    1.58269   16.89968
       H   -17.91177   -2.92893   13.12927
       O   -17.63916   -3.78245   12.77940
      H1   -18.22309   -4.37487   13.26576
       H   -15.97711   -6.34736   14.60001
       O   -15.20855   -6.60741   14.07811
      H1   -15.32034   -6.06028   13.29333

