60
frame 3 | Written by MDAnalysis XYZWriter (release 2.4.3)
       H   -10.69771   -3.87869    2.21445
       O   -11.50870   -4.27690    2.52410
      H1   -11.40191   -5.19050    2.24294
       H   -11.54595   -7.07777    8.02313
       O   -12.41259   -6.70295    7.76850
      H1   -12.24688   -6.38376    6.88111
       H    -5.31663   -5.87150    1.77730
       O    -5.42837   -5.57413    2.68529
      H1    -5.72105   -6.36188    3.17331
       H   -11.93399   -4.72435    5.15496
       O   -12.68014   -5.33557    5.29021
      H1   -13.47493   -4.78393    5.41162
       H   -10.16498   -3.82017    4.02170
       O   -10.37623   -3.55432    4.94841
      H1    -9.71579   -2.83451    5.08438
       H    -7.80324   -7.51607    5.46046
       O    -8.60166   -8.06420    5.45689
      H1    -9.26294   -7.46247    5.04914
       H    -8.21728   -3.33962    1.38958
       O    -8.23338   -3.28224    0.44071
      H1    -9.12549   -3.01682    0.21154
       H    -7.59315   -3.05957    3.33217
       O    -8.50007   -3.02123    3.03774
      H1    -8.61572   -2.07330    2.87595
       H    -9.18817   -7.29763    7.02506
       O    -9.80411   -7.39808    7.74737
      H1    -9.43093   -6.78620    8.42073
       H    -5.15879   -8.44624    4.03480
       O    -5.95328   -7.92962    4.04612
      H1    -6.55234   -8.46016    3.53284
       H   -13.03624   -6.57884    3.57440
       O   -12.57627   -7.26238    3.06223
      H1   -12.40465   -7.97495    3.66813
       H   -11.02658   -8.60637   -0.32025
       O   -10.69838   -9.16880    0.38446
      H1   -11.45868   -9.72784    0.61275
       H   -11.51839   -7.01467    0.65955
       O   -11.30824   -6.16003    0.31651
      H1   -12.17542   -5.76515    0.16951
       H    -8.12956   -6.84745   -0.59018
       O    -8.72063   -6.08184   -0.68441
      H1    -9.54589   -6.42732   -0.32962
       H   -11.23996   -5.14690    8.29289
       O   -10.55636   -4.53273    8.02407
      H1   -10.75519   -4.37386    7.11126
       H    -9.08265   -5.04449    6.76773
       O    -8.31822   -5.07271    6.17249
      H1    -8.75187   -4.79694    5.36557
       H   -10.84960   -6.69713    3.22341
       O    -9.93155   -6.54096    3.46294
      H1    -9.45302   -7.05759    2.82818
       H    -7.47346   -9.16527    1.39743
       O    -7.46722   -9.26239    2.35367
      H1    -7.48013  -10.23988    2.51938
       H    -8.25907   -9.80516    4.62195
       O    -7.81548  -10.66969    4.60695
      H1    -7.48026  -10.82133    5.49402
       H   -11.41112  -10.45546    4.78132
       O   -12.14821   -9.84925    4.75507
      H1   -12.57230   -9.83632    5.62299

