60
frame 3 | Written by MDAnalysis XYZWriter (release 2.4.3)
       H   -16.74755   -2.78283    7.64709
       O   -16.56679   -2.84416    8.58641
      H1   -17.21763   -3.48568    8.84698
       H   -14.47098   -2.12520   13.26418
       O   -14.47697   -2.28801   12.31564
      H1   -14.39938   -3.26500   12.27149
       H   -14.31049    0.51762   13.49955
       O   -15.12046    0.83401   13.93777
      H1   -15.74495    0.71841   13.23089
       H   -18.00321    1.50700   16.02529
       O   -17.92810    1.41734   16.99723
      H1   -17.80829    2.32509   17.32546
       H   -18.13222   -3.63489   17.52588
       O   -18.18239   -2.70367   17.19743
      H1   -17.67800   -2.22729   17.88514
       H   -13.32251   -1.00060   12.45567
       O   -12.84735   -0.25654   12.86519
      H1   -12.53280   -0.59523   13.71320
       H   -14.67793   -2.86467    8.46962
       O   -13.92507   -2.46080    8.90988
      H1   -13.21044   -2.51284    8.20734
       H   -17.63548    0.31999    9.38600
       O   -17.81415   -0.46080    9.96406
      H1   -17.49236   -1.26516    9.56069
       H   -14.50291   -0.94583   16.96928
       O   -14.55970   -1.42544   16.13894
      H1   -14.83599   -2.26998   16.49960
       H   -15.87232   -4.65328   11.98503
       O   -15.03761   -5.05691   11.87038
      H1   -15.15139   -5.58712   11.09562
       H   -17.56485    1.07396   11.23130
       O   -17.63761    1.91233   11.67308
      H1   -16.81987    2.29577   11.29900
       H   -14.93628    1.85462   10.20941
       O   -15.03331    2.74292   10.53741
      H1   -14.27499    2.81607   11.12956
       H   -18.36445   -2.22793   15.55557
       O   -18.69094   -1.91096   14.72097
      H1   -18.02768   -1.30435   14.39542
       H   -18.23217    2.67690   13.90047
       O   -18.79679    2.08867   14.46424
      H1   -19.37067    1.62210   13.87736
       H   -16.49758   -1.48409   12.55477
       O   -17.19652   -0.80133   12.54552
      H1   -17.32693   -0.70802   11.58943
       H   -18.33971   -4.22997   11.02294
       O   -18.60575   -4.43886   10.14179
      H1   -19.39427   -3.89772   10.02039
       H   -14.27625   -0.79084    9.15915
       O   -14.57274    0.14935    9.16235
      H1   -14.89466    0.30611    8.25351
       H   -15.20462    1.54230   15.62815
       O   -15.30493    2.00154   16.47466
      H1   -16.07066    1.58269   16.89968
       H   -17.91177   -2.92893   13.12927
       O   -17.63916   -3.78245   12.77940
      H1   -18.22309   -4.37487   13.26576
       H   -18.63556    2.08463    8.26468
       O   -17.69283    2.09437    8.46851
      H1   -17.29725    2.24134    7.59595

