60
frame 2 | Written by MDAnalysis XYZWriter (release 2.4.3)
       H    -0.47346   -2.96147  -13.70369
       O    -0.94339   -2.13249  -13.57261
      H1    -0.41007   -1.72256  -12.87741
       H     3.75928   -0.42297  -17.91621
       O     3.12004   -0.35191  -17.21428
      H1     2.68134   -1.21600  -17.26137
       H     4.60510    1.86016  -14.04904
       O     4.16253    2.05198  -13.20531
      H1     4.69775    2.78715  -12.84367
       H     0.32645   -1.97359  -16.88837
       O     1.15005   -2.32352  -17.20076
      H1     1.03066   -3.27740  -17.14375
       H    -3.68038    1.48648  -14.96689
       O    -3.65260    1.57253  -15.92205
      H1    -2.84701    2.03517  -16.10004
       H    -3.58752   -2.29896  -15.35192
       O    -3.32974   -1.55351  -14.79035
      H1    -2.74793   -2.06620  -14.19623
       H    -1.92806    1.72585  -18.53834
       O    -1.53096    1.48820  -17.70626
      H1    -0.61356    1.37636  -17.92393
       H     4.24271   -1.10483  -11.07126
       O     3.39175   -1.49893  -11.35221
      H1     3.34026   -1.33442  -12.31598
       H     1.04500    2.89089  -17.95779
       O     1.26254    2.37079  -17.18206
      H1     0.89594    2.86920  -16.44110
       H     0.04815    5.24399  -16.01723
       O    -0.28115    4.44678  -16.43029
      H1    -0.57069    3.91826  -15.64657
       H     0.17003    0.03433  -15.30587
       O     0.96266    0.47206  -14.97456
      H1     1.51024    0.63618  -15.78473
       H     3.39710    1.32393  -11.82974
       O     3.05407    1.35344  -10.92033
      H1     2.45618    0.59895  -10.81144
       H    -0.13903    0.33858  -11.98962
       O     0.56644   -0.33172  -12.11362
      H1     0.95709   -0.09222  -12.98382
       H    -0.29448    2.03606  -13.94888
       O    -0.75948    2.87052  -14.12630
      H1    -0.28040    3.48425  -13.54256
       H     3.09105   -1.78628  -14.47891
       O     3.05163   -0.89295  -14.11832
      H1     2.24558   -0.54444  -14.51240
       H     0.39644   -1.89973  -11.06351
       O     0.47927   -2.84527  -11.04087
      H1     0.05901   -3.13431  -10.23444
       H    -1.65141    2.53714  -11.73814
       O    -1.64301    1.58012  -11.53812
      H1    -2.27633    1.19897  -12.17243
       H     2.57273    3.09462  -13.66357
       O     1.90527    3.78318  -13.54564
      H1     1.66404    3.69516  -12.59308
       H    -1.80001   -1.28750  -15.82855
       O    -1.12360   -0.96545  -16.41813
      H1    -1.51475   -0.20908  -16.90796
       H     4.55135    0.31414  -15.58468
       O     5.16660    1.04136  -15.52334
      H1     6.02988    0.65421  -15.73379

