60
frame 2 | Written by MDAnalysis XYZWriter (release 2.4.3)
       H     3.59571   13.44755    8.84874
       O     3.49597   13.54017    7.89803
      H1     2.95119   12.80156    7.65522
       H    -1.55501   14.38714   10.53204
       O    -0.81781   13.79294   10.76377
      H1    -0.88366   13.06803   10.11988
       H    -3.33453   16.31048   10.16272
       O    -3.40295   15.40996   10.44802
      H1    -4.04544   15.37278   11.14298
       H     1.14242   15.59815   12.74627
       O     0.77274   15.93209   13.57173
      H1     1.33391   15.40161   14.22070
       H     1.28590   15.99682   10.67841
       O     1.49142   15.16880   11.10879
      H1     0.64169   14.68267   11.02409
       H    -2.43806   15.50944   13.71002
       O    -2.02158   16.06365   13.05239
      H1    -1.08163   16.08860   13.31526
       H     2.97749   14.02079   10.44682
       O     3.80816   13.58923   10.68980
      H1     4.35718   14.34137   11.06061
       H    -3.62260   14.59512    5.54018
       O    -2.68603   14.58369    5.76004
      H1    -2.69724   13.98043    6.51868
       H    -0.89270   13.05641   12.64832
       O    -0.57903   12.50544   13.33953
      H1    -1.08195   11.67290   13.20756
       H    -0.11731   17.79434   10.46813
       O     0.78802   17.63228   10.12706
      H1     0.58525   17.25985    9.22317
       H     2.53427   11.74886   13.11000
       O     1.96865   11.95835   13.86461
      H1     1.13628   12.33500   13.51205
       H     1.37627   10.42233    8.16860
       O     1.48977    9.87240    8.94485
      H1     1.12151    9.05501    8.65374
       H    -3.40810   12.79033    8.53725
       O    -2.92509   13.58111    8.33689
      H1    -3.02083   14.18918    9.08185
       H    -2.52791    9.28329   13.63695
       O    -2.28904   10.15047   13.27408
      H1    -3.05717   10.39301   12.75016
       H    -0.88456   17.02160    7.39774
       O     0.07399   16.92741    7.55969
      H1     0.25120   16.10583    7.11885
       H    -0.83013   18.63477   12.59336
       O    -1.34931   18.29159   11.85403
      H1    -1.79463   17.47569   12.20956
       H    -4.42020   11.72063   10.74013
       O    -4.57129   11.98486    9.85083
      H1    -5.23876   12.67952    9.94930
       H    -0.54625   10.98772    8.49754
       O    -1.09504   11.45643    9.16508
      H1    -1.74860   11.95003    8.67076
       H    -0.54095   10.52619   10.76578
       O    -0.32556    9.90166   11.46276
      H1    -1.07416   10.01303   12.05608
       H    -5.56680   11.67213   12.13378
       O    -4.63725   11.69704   12.38962
      H1    -4.42124   12.62577   12.28272

