60
frame 2 | Written by MDAnalysis XYZWriter (release 2.4.3)
       H    -7.35665   10.58323   10.93757
       O    -7.23489   11.31025   11.59244
      H1    -8.05073   11.21982   12.10020
       H    -5.89036    9.95809   14.96267
       O    -5.53383   10.84602   14.86596
      H1    -5.10079   10.84261   13.99885
       H    -1.55501   14.38714   10.53204
       O    -0.81781   13.79294   10.76377
      H1    -0.88366   13.06803   10.11988
       H    -6.09742    9.12217    8.89715
       O    -6.03152    9.68810    9.68353
      H1    -5.40508   10.35725    9.40189
       H    -3.33453   16.31048   10.16272
       O    -3.40295   15.40996   10.44802
      H1    -4.04544   15.37278   11.14298
       H    -3.86713   14.20623   15.04725
       O    -2.95043   14.52086   15.14297
      H1    -2.95831   15.22537   15.76883
       H    -7.38745   13.41350   14.78278
       O    -7.66784   12.51516   14.97466
      H1    -6.90167   11.94111   14.88282
       H    -2.43806   15.50944   13.71002
       O    -2.02158   16.06365   13.05239
      H1    -1.08163   16.08860   13.31526
       H    -0.89270   13.05641   12.64832
       O    -0.57903   12.50544   13.33953
      H1    -1.08195   11.67290   13.20756
       H    -5.23878    8.23052   12.30376
       O    -4.69578    9.00417   12.02229
      H1    -5.03129    9.09326   11.12387
       H    -3.40810   12.79033    8.53725
       O    -2.92509   13.58111    8.33689
      H1    -3.02083   14.18918    9.08185
       H    -2.52791    9.28329   13.63695
       O    -2.28904   10.15047   13.27408
      H1    -3.05717   10.39301   12.75016
       H    -4.42020   11.72063   10.74013
       O    -4.57129   11.98486    9.85083
      H1    -5.23876   12.67952    9.94930
       H    -6.77591   13.63851    9.39107
       O    -6.82517   13.65166   10.36124
      H1    -6.97590   12.72091   10.61697
       H    -4.79326   12.19571   17.51095
       O    -4.64734   11.22932   17.39604
      H1    -4.86811   11.10334   16.44489
       H    -5.89919   14.65887   11.48639
       O    -5.55832   15.05863   12.29127
      H1    -6.12149   14.74176   13.02810
       H    -0.54625   10.98772    8.49754
       O    -1.09504   11.45643    9.16508
      H1    -1.74860   11.95003    8.67076
       H    -0.54095   10.52619   10.76578
       O    -0.32556    9.90166   11.46276
      H1    -1.07416   10.01303   12.05608
       H    -5.56680   11.67213   12.13378
       O    -4.63725   11.69704   12.38962
      H1    -4.42124   12.62577   12.28272
       H    -6.76466   15.29016   15.63876
       O    -6.93889   15.01560   14.74076
      H1    -7.60971   15.67716   14.43698

