60
frame 3 | Written by MDAnalysis XYZWriter (release 2.4.3)
       H     8.14439    6.78656    8.91708
       O     8.31703    6.12891    9.60651
      H1     7.91747    6.53698   10.41140
       H     7.66991    2.73873   11.97517
       O     7.99683    1.82712   11.94855
      H1     7.87520    1.50889   11.04556
       H     5.73165    6.47957   13.71209
       O     5.86095    5.62859   14.12849
      H1     6.82033    5.51835   14.25308
       H     4.17848    8.03639   13.12431
       O     4.25342    7.53185   12.30224
      H1     3.54239    6.89455   12.33204
       H     3.84907    3.41421   11.54905
       O     4.38002    2.59253   11.37512
      H1     4.56912    2.33955   12.27605
       H     8.62712    3.27435   15.36042
       O     8.51011    2.62479   16.08492
      H1     7.72550    2.94524   16.53113
       H     2.23673    4.62775   12.81548
       O     2.74672    4.78377   12.01145
      H1     2.16254    4.47255   11.32636
       H     2.51282    5.84900   14.77662
       O     1.64618    6.29237   14.68885
      H1     1.85926    7.19908   14.43461
       H     6.02734    4.78423   12.25667
       O     6.53798    4.24672   11.62271
      H1     5.85170    3.67455   11.29460
       H     8.83504    9.09387   13.29918
       O     8.52481    8.20533   13.52947
      H1     8.04714    7.90231   12.74950
       H     4.40389    4.61699   14.97098
       O     3.63437    4.09515   14.69513
      H1     3.28858    3.81411   15.54770
       H     4.56383    1.17389   14.34706
       O     4.98140    1.95025   13.97073
      H1     4.40367    2.67435   14.18153
       H     6.87889    8.61182   14.76817
       O     5.93373    8.56905   14.68729
      H1     5.63047    8.07169   15.47957
       H    10.18662    7.00720   13.33872
       O    10.45771    6.11746   13.51676
      H1    10.39116    5.72586   12.64532
       H     9.17424    5.60591   14.43528
       O     8.54030    5.27272   15.10746
      H1     8.36568    6.02735   15.69113
       H     4.14855    1.60055    9.74823
       O     3.84689    1.22844    8.92770
      H1     3.25383    1.91952    8.58609
       H     5.91390    7.74691   11.68791
       O     6.83834    7.78355   11.38116
      H1     6.82315    8.25158   10.55349
       H     7.53118    1.14199   13.47676
       O     7.74632    0.50437   14.15102
      H1     8.01437    1.06783   14.89423
       H     5.99053    5.45995    9.05813
       O     5.60676    5.90242    8.28296
      H1     4.91899    5.28492    7.94882
       H     8.42221    4.26251    8.77016
       O     8.60514    3.71626    8.03530
      H1     9.20013    3.09604    8.46910

