60
frame 0 | Written by MDAnalysis XYZWriter (release 2.4.3)
       H   -15.44953   -5.36994   15.64013
       O   -14.70684   -5.58085   15.06724
      H1   -14.87064   -4.87119   14.44890
       H   -13.96865   -6.41864   10.19317
       O   -14.22530   -5.56264    9.82825
      H1   -14.45929   -5.78920    8.90716
       H   -13.80560   -7.84220   12.23083
       O   -14.19751   -8.01237   11.37284
      H1   -13.38864   -8.25438   10.89988
       H   -16.78219   -4.88340   17.00292
       O   -16.28753   -4.15562   16.63070
      H1   -16.79527   -3.37042   16.93999
       H   -16.93963   -1.63919    9.37348
       O   -16.58645   -2.43487    9.76689
      H1   -17.33591   -2.90738   10.09474
       H   -11.74652   -2.88758   12.23777
       O   -11.40291   -2.24100   11.63460
      H1   -11.89820   -2.38788   10.81571
       H   -12.51912   -0.66723   12.17408
       O   -13.14087    0.02984   11.92181
      H1   -13.27570    0.56070   12.72856
       H   -13.37620   -2.25048   17.18382
       O   -13.81270   -2.68184   16.41321
      H1   -14.47504   -3.19850   16.79079
       H   -12.40965   -4.05790   14.47718
       O   -12.39598   -4.06081   13.50344
      H1   -13.35420   -4.10059   13.28687
       H   -15.49857   -3.11561   12.95702
       O   -15.01348   -3.95555   12.87492
      H1   -15.64208   -4.47787   12.33120
       H   -11.92080   -7.08080   13.18235
       O   -11.34588   -6.43457   12.74986
      H1   -11.73608   -5.58799   12.95109
       H   -16.30556   -7.26533   14.21540
       O   -15.93376   -8.02163   13.77433
      H1   -15.12098   -8.14057   14.24477
       H   -15.70430   -5.79115   10.99440
       O   -16.36222   -5.96354   11.70974
      H1   -16.02444   -6.70335   12.27408
       H   -15.05670   -1.88953   15.05792
       O   -15.86362   -1.63482   14.63120
      H1   -15.56017   -1.26149   13.78764
       H   -12.03669   -4.05548    9.82375
       O   -12.58681   -3.43615    9.34043
      H1   -13.47233   -3.82210    9.35385
       H   -18.07815   -6.54261   15.56649
       O   -17.80397   -6.13775   14.71474
      H1   -18.14286   -6.73607   14.05816
       H   -14.77560   -0.78227   11.73608
       O   -15.63427   -1.12737   12.01931
      H1   -15.89534   -1.70860   11.27291
       H   -18.32449   -3.83371   12.11698
       O   -18.51165   -3.95038   11.16816
      H1   -19.41109   -3.69944   11.10404
       H   -17.35466   -2.74360   14.05627
       O   -17.91026   -3.42958   13.65376
      H1   -17.54780   -4.26087   13.98787
       H   -13.84124   -7.05890   14.41435
       O   -13.25162   -7.76852   14.11732
      H1   -12.81745   -8.05100   14.92358

