60
frame 3 | Written by MDAnalysis XYZWriter (release 2.4.3)
       H    -3.71819   10.88862  -12.32835
       O    -4.17875   10.46443  -13.09110
      H1    -3.51230    9.92465  -13.56321
       H     0.69141    7.82093  -14.58187
       O    -0.09598    7.76253  -13.98305
      H1    -0.73217    7.28875  -14.50730
       H     0.68927   12.12846  -17.43261
       O     0.21591   11.49247  -17.98103
      H1     0.57341   10.61519  -17.75930
       H     2.38418    6.19466  -19.52781
       O     1.52126    5.77199  -19.45679
      H1     1.50670    5.50029  -18.52727
       H     2.21474    8.61305  -16.23123
       O     2.52707    8.52746  -15.32534
      H1     3.00498    7.69048  -15.30943
       H    -3.21903    6.41576  -19.30624
       O    -2.79275    6.17439  -18.49640
      H1    -2.03582    6.70250  -18.46098
       H    -1.99567    7.14332  -16.05579
       O    -1.80475    6.26480  -15.68920
      H1    -2.17039    5.65222  -16.34784
       H    -2.06794    4.02301  -18.03844
       O    -1.89607    3.84795  -17.09822
      H1    -1.10464    3.29004  -17.13096
       H    -2.41337   12.39521  -15.06970
       O    -2.64213   13.13863  -14.53190
      H1    -2.79841   12.74830  -13.68823
       H     1.88734    4.71185  -16.43133
       O     1.03385    4.88904  -16.82525
      H1     0.61696    5.50993  -16.21353
       H     1.10172    8.75352  -17.93936
       O     1.84629    9.34984  -17.84498
      H1     2.13569    9.44602  -18.77212
       H    -5.28308   12.11934  -18.63117
       O    -5.56009   12.90938  -18.15001
      H1    -6.06002   13.47310  -18.74264
       H    -5.81900    9.39916  -16.29821
       O    -5.47283    8.75633  -16.92313
      H1    -5.32416    8.00683  -16.32369
       H    -3.82606    9.02855  -16.24881
       O    -3.15828    9.21595  -15.57682
      H1    -2.78428   10.05062  -15.81156
       H     1.87419   11.03679  -14.88609
       O     0.98027   11.04754  -14.49231
      H1     0.73700   11.99960  -14.56369
       H    -3.83862    6.53761  -15.00841
       O    -4.77988    6.78154  -15.12796
      H1    -5.08223    6.91963  -14.22749
       H    -2.87178   11.77157  -17.66897
       O    -2.42911   11.48669  -16.84174
      H1    -1.49141   11.62971  -17.04061
       H    -3.16339    4.13282  -13.68394
       O    -2.36112    4.69474  -13.56917
      H1    -2.25649    5.07087  -14.44431
       H    -0.66386    8.25660  -18.55751
       O    -0.79142    8.20632  -17.60486
      H1    -1.30230    9.01585  -17.42377
       H    -1.21638    8.27431  -11.50812
       O    -1.03449    9.18301  -11.75074
      H1    -0.67494    9.08061  -12.63879

