60
frame 2 | Written by MDAnalysis XYZWriter (release 2.4.3)
       H    -6.02780    3.16934   17.59977
       O    -6.10064    4.11493   17.82018
      H1    -6.02674    4.56925   16.95043
       H   -14.15771   -1.41739   15.74778
       O   -13.29230   -0.98843   15.51178
      H1   -12.60351   -1.67722   15.45789
       H    -6.16452   -1.09724   14.40255
       O    -6.54929   -1.08125   13.50089
      H1    -7.49745   -1.23394   13.66578
       H    -2.77339   -0.36837   16.43773
       O    -3.31100   -0.98599   16.96463
      H1    -3.04021   -1.84589   16.63389
       H    -8.22015    1.79485   17.06670
       O    -9.11845    1.80935   17.42356
      H1    -9.25694    0.86455   17.53762
       H    -9.49740    0.09079   13.44765
       O    -9.63265   -0.86040   13.47492
      H1    -9.38645   -1.11012   12.57383
       H    -9.22723   -4.96251   16.91468
       O    -9.52971   -5.67318   17.51823
      H1   -10.26421   -5.21944   17.97215
       H    -5.46733   -6.98066   16.18519
       O    -6.23558   -6.71093   16.67592
      H1    -6.33926   -5.79611   16.41226
       H   -12.83850   -0.55700   17.92091
       O   -12.55901   -1.31858   18.45079
      H1   -13.17502   -1.33356   19.20786
       H    -8.09132   -1.54164   18.50322
       O    -8.08403   -0.80220   17.89135
      H1    -7.42550   -1.09605   17.25569
       H    -7.67996   -3.84464   15.64526
       O    -7.02107   -4.45273   15.28602
      H1    -7.61747   -5.12205   14.95927
       H    -7.95724    1.76851   15.29505
       O    -7.08977    1.89993   15.72383
      H1    -6.45714    1.63628   15.05286
       H    -5.91718   -2.29002   16.04685
       O    -5.88476   -1.30448   16.07258
      H1    -5.00055   -1.11147   16.40278
       H    -3.07147    3.05359   18.33462
       O    -3.19026    2.10965   18.18437
      H1    -3.93826    1.89788   18.77777
       H    -5.58728   -4.48814   18.32425
       O    -6.35281   -4.77560   18.85451
      H1    -6.56221   -5.68957   18.55826
       H   -10.64251   -2.17461   14.33116
       O   -11.21034   -2.58233   14.98051
      H1   -11.37989   -3.43620   14.53557
       H    -9.47785    3.23395   16.35468
       O    -9.86239    3.83232   15.71805
      H1    -9.42447    4.66431   15.89212
       H    -3.45272   -3.85934   17.76847
       O    -4.30768   -3.87350   17.28427
      H1    -4.19348   -4.56832   16.64205
       H    -8.91464   -2.07008   16.81785
       O    -8.93115   -2.94759   16.37467
      H1    -9.66719   -2.80682   15.78768
       H   -12.51564   -4.62573   18.27426
       O   -11.76974   -4.91871   18.84962
      H1   -11.64036   -4.16282   19.45650

