60
frame 2 | Written by MDAnalysis XYZWriter (release 2.4.3)
       H    16.40168   15.65759   -9.83523
       O    17.08146   15.46738  -10.52934
      H1    16.81916   14.61033  -10.88309
       H    13.21609   12.87240   -8.43465
       O    12.97027   12.18622   -9.05722
      H1    13.54815   11.46471   -8.80902
       H    15.34287   13.47356  -12.58359
       O    15.96279   13.29389  -11.90642
      H1    16.55280   12.63275  -12.32383
       H     9.85192   15.80086   -8.07498
       O    10.08429   16.72785   -7.92309
      H1     9.23927   17.14737   -7.74921
       H    11.53144   14.82312   -5.43448
       O    12.12601   15.55461   -5.45580
      H1    11.73025   16.15073   -6.08980
       H    11.09291   11.08908   -8.15588
       O    10.70243   11.59737   -7.42925
      H1     9.80023   11.26773   -7.45275
       H    13.63301   18.59144   -7.48601
       O    13.03635   17.94526   -7.08519
      H1    12.28876   18.46875   -6.78007
       H    10.72090   13.56694   -8.08629
       O    10.22003   14.14665   -8.68645
      H1     9.62959   13.51958   -9.14810
       H    11.26627   13.73754  -11.48688
       O    10.74163   12.98868  -11.80269
      H1    11.36512   12.25284  -11.88905
       H    14.25609   14.03540   -7.51009
       O    13.48850   14.50542   -7.89160
      H1    13.00593   14.75558   -7.10941
       H     9.20883   12.92488  -10.95013
       O     8.52858   12.65629  -10.33164
      H1     7.79108   13.28493  -10.48984
       H     7.91891   15.15832  -11.92736
       O     8.11094   15.96151  -11.41426
      H1     7.85790   15.72156  -10.53561
       H    10.44348   14.37825  -14.54151
       O    10.07541   13.53279  -14.28952
      H1    10.48966   13.38596  -13.41580
       H    14.50014   16.04560   -9.05687
       O    15.20691   16.68061   -9.09939
      H1    15.05337   17.12319   -9.95965
       H    13.03945   11.64973  -10.75206
       O    13.12148   11.55004  -11.69768
      H1    13.75992   12.23636  -11.94833
       H    11.01899   16.57736  -12.03059
       O    10.25575   17.05414  -12.36317
      H1     9.46956   16.61715  -11.94342
       H    11.45078   14.81250   -9.78087
       O    11.96356   15.25591  -10.47913
      H1    11.92818   16.19067  -10.23164
       H    10.40749   13.02907   -4.39793
       O    10.28579   13.45024   -5.25292
      H1    10.63970   12.79403   -5.83945
       H    12.42352   17.92913   -8.89547
       O    11.78165   17.94552   -9.61098
      H1    11.06483   17.41683   -9.22347
       H    13.85589   13.28037  -14.24438
       O    13.60781   13.91815  -13.53727
      H1    13.46381   14.74537  -13.97681

