60
frame 3 | Written by MDAnalysis XYZWriter (release 2.4.3)
       H   -10.83833    0.10921   10.34136
       O   -10.98151    0.64841   11.13668
      H1   -11.59442    0.15912   11.71139
       H    -7.73430    1.13206    8.16539
       O    -8.58089    1.25513    8.59353
      H1    -8.30708    1.68228    9.42722
       H   -11.74668    2.43382   11.65229
       O   -12.38139    3.15462   11.73689
      H1   -11.88743    3.89119   12.16546
       H   -12.83858    4.18710    8.44333
       O   -12.23522    4.51435    9.12435
      H1   -12.52667    4.06328    9.95720
       H   -14.41006    3.96904    7.28353
       O   -13.60507    3.89178    6.77178
      H1   -13.54619    4.74493    6.30434
       H   -13.32251   -1.00060   12.45567
       O   -12.84735   -0.25654   12.86519
      H1   -12.53280   -0.59523   13.71320
       H    -9.45737    6.09475   10.53176
       O    -9.19302    5.21304   10.24292
      H1    -9.93859    4.87136    9.75954
       H   -14.67793   -2.86467    8.46962
       O   -13.92507   -2.46080    8.90988
      H1   -13.21044   -2.51284    8.20734
       H   -14.64816    1.85786    5.92948
       O   -14.15213    1.09169    6.19851
      H1   -13.97036    0.55743    5.39872
       H   -10.28534    4.68556    6.23221
       O   -10.18050    5.50198    5.80322
      H1   -10.89596    5.46230    5.16711
       H   -10.84052    2.10659    4.95692
       O   -11.79130    2.19655    4.85876
      H1   -12.08637    2.25358    5.75101
       H   -15.65039    4.92412    9.10373
       O   -16.22595    4.53750    8.41399
      H1   -16.65175    3.80915    8.90908
       H   -12.39830    2.31216   13.36039
       O   -11.86388    2.13828   14.15690
      H1   -10.96773    1.99144   13.85604
       H   -12.61050    0.50170    4.22453
       O   -13.10714   -0.33897    4.21206
      H1   -12.54245   -0.91647    4.73659
       H   -10.68925    3.95114    8.01942
       O    -9.77506    3.69261    7.85980
      H1    -9.78594    2.72293    7.92153
       H   -11.42923    0.00828    8.27909
       O   -10.79591   -0.66871    8.56542
      H1    -9.92636   -0.19925    8.44606
       H   -14.93628    1.85462   10.20941
       O   -15.03331    2.74292   10.53741
      H1   -14.27499    2.81607   11.12956
       H   -12.98464    1.57318    7.39391
       O   -12.17459    1.56475    7.88989
      H1   -12.43561    1.84607    8.76507
       H   -14.27625   -0.79084    9.15915
       O   -14.57274    0.14935    9.16235
      H1   -14.89466    0.30611    8.25351
       H   -11.61842   -1.23406    7.16375
       O   -12.16832   -1.76670    6.55002
      H1   -11.51976   -2.39998    6.24513

