60
frame 3 | Written by MDAnalysis XYZWriter (release 2.4.3)
       H     3.45431  -11.91332   14.28309
       O     4.29931  -11.72185   13.84935
      H1     4.89010  -11.58519   14.58080
       H    14.04489  -16.52331   16.45510
       O    13.43640  -15.89253   16.90249
      H1    14.04395  -15.47220   17.54169
       H     8.54791  -18.30464   19.26057
       O     8.14909  -18.22662   18.40979
      H1     7.27805  -18.62334   18.60331
       H     6.93787  -13.19932   18.68829
       O     6.67764  -13.72591   17.95166
      H1     6.27900  -13.10614   17.33150
       H     9.31170  -14.51931   11.80019
       O     9.83111  -15.35361   11.78593
      H1     9.49750  -15.83522   12.53653
       H     2.85017  -18.25383   13.72390
       O     3.64763  -18.34611   14.24317
      H1     3.89656  -17.41183   14.41497
       H     6.09817  -14.87300   14.49154
       O     6.74271  -14.90617   13.80225
      H1     6.43112  -15.66455   13.27419
       H     9.90035  -18.04891   13.54195
       O     9.11905  -17.65163   13.10341
      H1     9.02753  -18.28270   12.37244
       H     4.23606   -9.79189   17.52311
       O     5.02023  -10.12201   17.98359
      H1     4.62957  -10.71195   18.63655
       H     8.70130  -11.37757   17.60794
       O     8.41949  -11.23858   16.72563
      H1     9.11656  -11.54703   16.14899
       H     3.56792  -15.66147   14.91877
       O     4.43351  -15.67662   15.33741
      H1     4.19423  -15.57415   16.26587
       H     6.87796  -11.54467   16.28673
       O     5.92637  -11.64738   16.10389
      H1     5.50393  -11.08090   16.74434
       H    11.77466  -12.98754   17.86406
       O    12.37778  -13.24970   17.16564
      H1    12.61654  -14.13638   17.48104
       H     6.74457  -13.26714   12.47450
       O     6.40013  -12.63845   11.82243
      H1     5.43314  -12.64191   11.91940
       H     8.34409  -14.98194   14.60452
       O     9.23547  -14.85889   14.96954
      H1     9.15520  -15.13607   15.89522
       H     9.86028  -13.33622   15.17914
       O    10.40876  -12.57196   15.36378
      H1    11.17538  -12.93145   15.84747
       H    10.43750  -16.29483   18.15896
       O    11.25726  -16.84764   18.12933
      H1    11.85435  -16.28238   17.62009
       H     8.37068  -16.47953   18.09589
       O     8.79732  -15.61328   18.16033
      H1     8.08048  -14.99566   18.06431
       H     3.30053  -16.23963   18.60655
       O     3.95626  -15.60161   18.24647
      H1     3.53764  -14.79728   18.59826
       H     6.02617  -16.38449   15.52142
       O     6.64520  -16.94110   16.03027
      H1     7.05486  -17.57179   15.42385

