60
frame 2 | Written by MDAnalysis XYZWriter (release 2.4.3)
       H    -3.33346    7.08410  -10.92081
       O    -2.62770    7.14979  -11.56495
      H1    -1.83674    7.11867  -11.00540
       H    -4.64239    8.31952   -7.31364
       O    -5.16749    8.51218   -8.09699
      H1    -4.60401    9.12567   -8.58587
       H    -3.32010   10.46422  -11.83546
       O    -3.63981    9.75500  -12.38773
      H1    -3.61822    8.97716  -11.81015
       H    -4.88641   10.74389   -5.62406
       O    -4.01989   11.02008   -5.31241
      H1    -3.45341   11.05392   -6.07543
       H    -0.08477    5.39024   -7.49114
       O    -0.79040    5.99786   -7.75339
      H1    -0.45852    6.46608   -8.51908
       H    -5.82448   12.91355   -7.37697
       O    -5.12763   12.70481   -8.01619
      H1    -4.40433   12.40700   -7.45911
       H    -4.26079   12.09994  -11.40408
       O    -3.46810   12.53256  -11.74013
      H1    -3.91850   13.15383  -12.37331
       H     0.02819    6.09221  -12.55942
       O    -0.28402    5.64863  -11.75862
      H1    -1.22999    5.52607  -11.82312
       H    -4.50224    6.46143   -5.68062
       O    -3.91116    7.21114   -5.90440
      H1    -3.02276    6.85497   -5.94384
       H    -1.99309    8.93724   -9.76363
       O    -2.51952    8.69693   -8.99329
      H1    -1.89203    8.79463   -8.28609
       H     0.85521    9.61575   -7.28874
       O     1.64190   10.04199   -7.60772
      H1     2.16765    9.31453   -7.92598
       H    -1.92549   11.08290   -7.84852
       O    -2.57956   11.76378   -7.57642
      H1    -2.02612   12.53773   -7.36468
       H    -0.04698   11.53942  -10.01543
       O    -0.89653   11.08218  -10.08658
      H1    -1.49697   11.82617   -9.83921
       H    -4.03192    5.64852   -9.27108
       O    -4.64490    6.27640   -9.70634
      H1    -4.90356    6.86256   -8.96673
       H    -0.78658    8.37708   -6.45308
       O    -0.93870    9.24782   -6.88496
      H1    -0.80235    9.82841   -6.12222
       H     0.39020    8.56288   -9.56900
       O     0.12843    7.64796   -9.75593
      H1     0.67063    7.43804  -10.50455
       H    -5.23853   11.18552   -9.18752
       O    -5.22629   10.64121   -9.97580
      H1    -5.99943   10.09683   -9.83809
       H    -6.76034    9.22392   -8.07496
       O    -7.60709    9.72480   -8.03870
      H1    -7.35257   10.44010   -7.50274
       H    -2.42382    5.09064   -7.90148
       O    -3.25879    4.66926   -8.06482
      H1    -2.99170    3.78970   -8.27347
       H    -0.84637    9.98896  -11.72443
       O    -0.46790    9.40266  -12.42279
      H1    -0.62322    9.91705  -13.19743

