60
frame 2 | Written by MDAnalysis XYZWriter (release 2.4.3)
       H     4.09782   13.87409  -14.12162
       O     3.79015   14.15763  -13.25365
      H1     3.14710   14.82744  -13.50601
       H     6.15720   18.85795   -9.76777
       O     6.39422   18.02094  -10.17871
      H1     6.86582   18.34314  -10.95907
       H     7.68169   18.36015   -8.87779
       O     8.30518   18.63927   -8.21503
      H1     7.75390   18.93917   -7.48287
       H     9.85192   15.80086   -8.07498
       O    10.08429   16.72785   -7.92309
      H1     9.23927   17.14737   -7.74921
       H     2.86953   14.94530   -9.54513
       O     2.77355   14.59536   -8.63736
      H1     3.56984   14.02038   -8.60874
       H     4.92590   15.74269  -12.60129
       O     5.63207   16.37790  -12.74047
      H1     6.02355   16.42702  -11.85475
       H    10.72090   13.56694   -8.08629
       O    10.22003   14.14665   -8.68645
      H1     9.62959   13.51958   -9.14810
       H     9.20883   12.92488  -10.95013
       O     8.52858   12.65629  -10.33164
      H1     7.79108   13.28493  -10.48984
       H     3.39870   16.67756   -7.98450
       O     3.97788   17.40623   -7.76243
      H1     3.38263   18.15796   -7.82545
       H     2.07913   16.23207  -12.07819
       O     2.24740   16.27001  -11.12789
      H1     2.90165   16.98990  -11.01959
       H     5.02229   13.27507  -10.05249
       O     5.00001   13.97471  -10.70358
      H1     4.54070   13.59940  -11.44368
       H     1.87113   12.93444   -9.24314
       O     1.65790   12.08865   -9.67613
      H1     1.79117   11.46809   -8.96343
       H     7.91891   15.15832  -11.92736
       O     8.11094   15.96151  -11.41426
      H1     7.85790   15.72156  -10.53561
       H     5.98001   16.33487   -9.00351
       O     6.26800   15.41042   -8.90780
      H1     5.87243   14.97848   -9.65591
       H     4.43418   18.11943  -10.35381
       O     3.83581   18.49518  -10.99624
      H1     3.51920   19.28267  -10.53609
       H     6.73624   13.34088  -12.90567
       O     7.45134   13.93255  -13.22546
      H1     8.13863   13.29618  -13.48087
       H     4.15594   11.26635  -11.05288
       O     4.28653   10.50950  -10.46046
      H1     4.70393   10.95323   -9.71311
       H     6.13806   14.74516   -7.42240
       O     6.26711   14.19940   -6.62798
      H1     7.22974   14.06875   -6.66053
       H     5.83260   16.11799   -6.00370
       O     5.54549   16.73840   -5.31903
      H1     4.96703   17.33660   -5.82048
       H     5.09109   13.19700   -7.58228
       O     4.71505   12.71670   -8.31607
      H1     5.06088   11.84784   -8.11372

