60
frame 2 | Written by MDAnalysis XYZWriter (release 2.4.3)
       H   -18.53368  -11.91555  -14.98911
       O   -18.74710  -12.04468  -14.04766
      H1   -19.33280  -12.80088  -14.06402
       H   -12.61064  -14.20114  -16.17860
       O   -12.72392  -13.41230  -15.66622
      H1   -12.27668  -13.55944  -14.85794
       H   -12.15815   -9.59456  -14.74451
       O   -12.47826   -8.68598  -14.88809
      H1   -12.40304   -8.46822  -15.80878
       H   -15.72052   -8.31307  -11.45908
       O   -15.92011   -9.19106  -11.85122
      H1   -15.07135   -9.65515  -11.74672
       H   -13.89194  -11.04714  -13.72726
       O   -13.90991  -11.43133  -12.83966
      H1   -14.66167  -12.03616  -12.90096
       H   -10.50320   -9.43605  -18.46046
       O   -11.25279   -9.47527  -17.86962
      H1   -11.13663  -10.24734  -17.29097
       H   -13.85271   -7.27014  -18.22970
       O   -13.59602   -7.46859  -19.11557
      H1   -13.66608   -8.46521  -19.09724
       H   -12.81230   -9.96668  -18.54445
       O   -13.79739  -10.05655  -18.50982
      H1   -14.00167  -10.20905  -17.57624
       H   -15.36658   -6.25693  -13.31247
       O   -14.56193   -6.76069  -13.49342
      H1   -14.84811   -7.64552  -13.74939
       H   -13.48061  -15.57789  -17.34322
       O   -12.50999  -15.51756  -17.26378
      H1   -12.34806  -15.06522  -18.11369
       H   -15.51665  -16.62373  -16.93274
       O   -15.19008  -15.70098  -16.97420
      H1   -15.60443  -15.45011  -17.80393
       H   -17.14206  -16.12045  -13.69023
       O   -16.20826  -16.05060  -13.82149
      H1   -16.14145  -15.65214  -14.72497
       H   -15.00178  -13.53141  -15.65668
       O   -15.93354  -13.53311  -15.43617
      H1   -15.96119  -13.15449  -14.54284
       H   -13.37610   -6.44754  -16.18208
       O   -14.17766   -6.69253  -16.65196
      H1   -14.70596   -7.03678  -15.92475
       H   -18.42345  -15.71180  -16.32854
       O   -18.11627  -15.14584  -15.58338
      H1   -17.34394  -14.69803  -15.93005
       H   -16.67801  -13.85966  -12.68765
       O   -16.44253  -12.94540  -12.93114
      H1   -17.24084  -12.53245  -13.29736
       H   -14.77721  -15.46753  -12.40795
       O   -13.89459  -15.39236  -12.06539
      H1   -13.45707  -14.75317  -12.64778
       H   -16.06296   -9.72919  -14.95222
       O   -16.18336   -8.87981  -14.47144
      H1   -16.08389   -9.15385  -13.54874
       H   -10.65971  -11.24114  -15.40161
       O   -11.54283  -11.03267  -15.74428
      H1   -11.93243  -11.89042  -15.83405
       H   -15.88974  -11.84026  -16.66522
       O   -15.74718  -10.86419  -16.67161
      H1   -16.17958  -10.56256  -17.48101

