60
frame 2 | Written by MDAnalysis XYZWriter (release 2.4.3)
       H   -12.21854   -8.10540   10.92197
       O   -12.14766   -7.68866   11.79326
      H1   -11.92679   -6.78303   11.55419
       H    -8.15521   -6.56557   13.55599
       O    -8.73131   -6.50436   14.33634
      H1    -8.28042   -7.06409   15.00723
       H    -6.02733   -7.47499   11.94875
       O    -6.66036   -6.81179   12.20386
      H1    -7.14597   -6.71089   11.39089
       H   -13.87106   -3.50446   11.75733
       O   -13.08771   -3.23528   11.30039
      H1   -13.39846   -3.15156   10.36687
       H    -9.94026   -2.87614   10.82293
       O    -9.30260   -2.21549   11.11214
      H1    -8.59016   -2.42357   10.51875
       H   -10.45519   -8.38092    7.02577
       O   -10.18243   -8.51524    7.93722
      H1    -9.17957   -8.57364    7.87885
       H    -9.49740    0.09079   13.44765
       O    -9.63265   -0.86040   13.47492
      H1    -9.38645   -1.11012   12.57383
       H    -5.88875   -4.64435   10.36221
       O    -5.65210   -4.51390   11.28120
      H1    -5.85774   -5.35276   11.69674
       H    -7.67996   -3.84464   15.64526
       O    -7.02107   -4.45273   15.28602
      H1    -7.61747   -5.12205   14.95927
       H    -5.25247   -2.28207    9.66233
       O    -5.94505   -1.94008   10.26643
      H1    -6.00888   -2.66806   10.90260
       H    -7.63312   -3.74738    8.44312
       O    -7.04755   -4.49112    8.67523
      H1    -7.17188   -4.99985    7.85316
       H    -8.02430   -5.14015    9.99934
       O    -8.48936   -5.87479   10.41414
      H1    -9.17049   -5.47855   10.94651
       H   -11.01997   -6.74933    8.03648
       O   -11.42835   -5.93768    7.67235
      H1   -11.05341   -5.82045    6.80860
       H   -10.64251   -2.17461   14.33116
       O   -11.21034   -2.58233   14.98051
      H1   -11.37989   -3.43620   14.53557
       H   -10.98233   -4.69140   12.60609
       O   -10.73203   -4.61005   11.66803
      H1   -11.50968   -4.14050   11.31525
       H    -6.93524   -7.96006    8.32324
       O    -7.58236   -8.33374    8.92128
      H1    -8.11723   -7.54621    9.19054
       H    -9.76316   -8.31276   14.45966
       O   -10.26734   -9.04182   14.06930
      H1   -10.60387   -8.68868   13.23716
       H   -11.09139   -4.29939    8.49826
       O   -11.02201   -3.40006    8.87559
      H1   -11.87228   -3.04882    8.66016
       H   -12.64970   -5.20365   14.63770
       O   -11.76407   -5.11545   14.23029
      H1   -11.30399   -5.83600   14.67504
       H    -8.43462   -1.28094    8.65088
       O    -8.58549   -2.19030    8.38147
      H1    -9.47684   -2.39181    8.66991

