60
frame 3 | Written by MDAnalysis XYZWriter (release 2.4.3)
       H   -10.69771   -3.87869    2.21445
       O   -11.50870   -4.27690    2.52410
      H1   -11.40191   -5.19050    2.24294
       H   -10.87588   -4.86306   -3.78116
       O   -11.40896   -4.04625   -3.83989
      H1   -12.30837   -4.37700   -3.80252
       H   -14.66232   -4.90217   -3.58949
       O   -14.20454   -4.24520   -3.05947
      H1   -14.76250   -3.45368   -3.15704
       H   -14.54614   -1.58198    3.87138
       O   -14.81262   -2.47181    3.65092
      H1   -15.42007   -2.32641    2.89416
       H   -13.74953   -4.95811   -1.35761
       O   -13.75671   -5.21822   -0.40987
      H1   -13.52910   -4.37440    0.02230
       H   -15.68571   -0.67858   -0.01717
       O   -15.67794    0.03492    0.64215
      H1   -16.23377   -0.40883    1.34671
       H    -8.21728   -3.33962    1.38958
       O    -8.23338   -3.28224    0.44071
      H1    -9.12549   -3.01682    0.21154
       H   -13.03624   -6.57884    3.57440
       O   -12.57627   -7.26238    3.06223
      H1   -12.40465   -7.97495    3.66813
       H   -12.91185   -8.22261   -2.04256
       O   -13.85167   -8.39593   -1.86596
      H1   -13.95394   -8.24691   -0.92820
       H   -17.05259   -3.63242    2.11122
       O   -17.05454   -2.66721    2.00047
      H1   -17.53064   -2.35670    2.78289
       H   -11.51839   -7.01467    0.65955
       O   -11.30824   -6.16003    0.31651
      H1   -12.17542   -5.76515    0.16951
       H   -13.99323   -7.85707    1.63187
       O   -14.27752   -8.19619    0.78769
      H1   -15.08115   -8.64313    1.02637
       H    -8.12956   -6.84745   -0.59018
       O    -8.72063   -6.08184   -0.68441
      H1    -9.54589   -6.42732   -0.32962
       H   -12.84082   -3.54667    1.81070
       O   -13.43692   -3.00940    1.23751
      H1   -14.21986   -2.92019    1.77286
       H   -12.47575   -0.56583    2.58268
       O   -12.16580   -0.68259    1.68997
      H1   -12.69091   -1.45082    1.39458
       H   -16.19477   -4.53687   -1.48170
       O   -16.20853   -4.49269   -0.49806
      H1   -15.58766   -5.18221   -0.26205
       H   -15.77042   -2.85320   -0.90364
       O   -15.41885   -1.94872   -1.03208
      H1   -14.51042   -2.16380   -1.26280
       H   -14.91164   -7.25354   -3.13891
       O   -15.68592   -6.85107   -3.59324
      H1   -15.90377   -7.51220   -4.25446
       H   -10.52443   -1.31274    0.66873
       O   -10.56783   -1.76250   -0.20660
      H1   -11.35355   -1.36572   -0.59522
       H   -12.85813    0.11014   -1.47326
       O   -12.61126   -0.62661   -2.06558
      H1   -11.85658   -0.24555   -2.50956

