60
frame 2 | Written by MDAnalysis XYZWriter (release 2.4.3)
       H    -7.35665   10.58323   10.93757
       O    -7.23489   11.31025   11.59244
      H1    -8.05073   11.21982   12.10020
       H   -10.19511   11.89196   13.13115
       O    -9.31362   12.24196   12.88662
      H1    -8.79284   12.24523   13.71396
       H    -6.09742    9.12217    8.89715
       O    -6.03152    9.68810    9.68353
      H1    -5.40508   10.35725    9.40189
       H    -3.33453   16.31048   10.16272
       O    -3.40295   15.40996   10.44802
      H1    -4.04544   15.37278   11.14298
       H    -8.58597   17.85565    9.05168
       O    -8.91459   18.18624    8.20648
      H1    -9.17920   19.09357    8.43565
       H    -9.39433   15.80982    9.26151
       O   -10.21140   15.28384    9.19254
      H1   -10.32094   14.93807   10.05722
       H    -4.57746   11.94596    5.51876
       O    -4.97471   11.56765    6.28539
      H1    -5.35655   10.75898    5.90509
       H    -9.57915   11.59020    8.65010
       O    -8.60303   11.62993    8.46914
      H1    -8.37286   10.76630    8.13826
       H    -6.88824   18.32178   12.77041
       O    -6.04444   17.90767   13.09117
      H1    -6.05785   16.99376   12.71476
       H    -6.06692   12.84715    7.06386
       O    -6.76606   13.41152    7.44481
      H1    -7.49598   12.83537    7.72128
       H    -8.27194   14.90241    6.44556
       O    -7.89682   15.70217    6.04468
      H1    -8.67736   16.21650    5.77842
       H   -10.01591   13.27613    7.21234
       O   -10.00327   13.49903    6.26543
      H1   -10.76183   14.07292    6.25207
       H   -11.00988   14.62512   11.50239
       O   -10.13437   14.67311   11.87492
      H1   -10.00367   13.83774   12.35117
       H    -3.40810   12.79033    8.53725
       O    -2.92509   13.58111    8.33689
      H1    -3.02083   14.18918    9.08185
       H    -8.53641   16.50802   11.59562
       O    -8.09063   16.49330   10.75081
      H1    -7.99355   15.54116   10.56459
       H    -4.42020   11.72063   10.74013
       O    -4.57129   11.98486    9.85083
      H1    -5.23876   12.67952    9.94930
       H    -6.77591   13.63851    9.39107
       O    -6.82517   13.65166   10.36124
      H1    -6.97590   12.72091   10.61697
       H    -5.57000   14.87344    4.25692
       O    -5.31654   15.13228    5.16063
      H1    -6.18560   15.10228    5.57377
       H    -5.89919   14.65887   11.48639
       O    -5.55832   15.05863   12.29127
      H1    -6.12149   14.74176   13.02810
       H    -5.56680   11.67213   12.13378
       O    -4.63725   11.69704   12.38962
      H1    -4.42124   12.62577   12.28272

