60
frame 3 | Written by MDAnalysis XYZWriter (release 2.4.3)
       H   -10.68202  -11.35489    3.11271
       O   -10.24894  -11.66463    2.30353
      H1    -9.74197  -12.43337    2.53830
       H    -7.21511  -13.96148   -0.82606
       O    -6.94390  -14.73494   -1.36606
      H1    -7.77061  -15.07082   -1.70391
       H    -3.20497  -10.38185    0.88805
       O    -3.89294   -9.78737    0.61225
      H1    -4.64653  -10.37898    0.46604
       H    -7.33995   -9.09282   -0.87146
       O    -7.03210   -8.38850   -0.24945
      H1    -6.17569   -8.08784   -0.60764
       H   -11.87438  -11.60951    1.07965
       O   -12.61070  -11.20235    0.60756
      H1   -13.00550  -10.63882    1.26225
       H   -12.91185   -8.22261   -2.04256
       O   -13.85167   -8.39593   -1.86596
      H1   -13.95394   -8.24691   -0.92820
       H   -11.02658   -8.60637   -0.32025
       O   -10.69838   -9.16880    0.38446
      H1   -11.45868   -9.72784    0.61275
       H   -11.51839   -7.01467    0.65955
       O   -11.30824   -6.16003    0.31651
      H1   -12.17542   -5.76515    0.16951
       H    -8.12956   -6.84745   -0.59018
       O    -8.72063   -6.08184   -0.68441
      H1    -9.54589   -6.42732   -0.32962
       H   -13.95148  -11.44104   -0.77645
       O   -14.73098  -11.11862   -1.23922
      H1   -14.49262  -10.20914   -1.48022
       H    -8.83635   -9.04295   -4.72181
       O    -9.10664   -9.62814   -4.00327
      H1    -8.24345   -9.92161   -3.60442
       H   -10.84960   -6.69713    3.22341
       O    -9.93155   -6.54096    3.46294
      H1    -9.45302   -7.05759    2.82818
       H    -8.75303   -6.50881   -3.80938
       O    -9.43106   -5.98110   -3.38574
      H1    -9.21609   -5.96939   -2.48216
       H   -10.40960   -8.98348   -2.91670
       O   -10.97044   -8.32880   -2.50011
      H1   -10.51214   -7.49217   -2.71574
       H    -6.37978  -11.84266    0.51743
       O    -5.99347  -11.57263   -0.33521
      H1    -6.75917  -11.10587   -0.69235
       H    -7.47346   -9.16527    1.39743
       O    -7.46722   -9.26239    2.35367
      H1    -7.48013  -10.23988    2.51938
       H    -5.59102   -9.78395   -3.41514
       O    -6.41864  -10.09393   -2.94163
      H1    -6.39545  -11.05208   -3.14667
       H    -8.16482  -12.49718   -3.79053
       O    -7.25688  -12.76088   -3.54808
      H1    -7.37030  -13.41520   -2.86840
       H    -9.33192   -9.75932   -0.45460
       O    -8.67125  -10.38695   -0.75744
      H1    -8.91928  -11.21579   -0.35673
       H    -8.95726  -13.29337    0.96808
       O    -9.12380  -13.04820    0.03851
      H1    -9.83560  -13.61843   -0.20974

