60
frame 3 | Written by MDAnalysis XYZWriter (release 2.4.3)
       H    -7.42454   18.59052   17.12663
       O    -7.74104   18.12624   16.36715
      H1    -7.67205   17.18880   16.58203
       H     1.13828   15.37502   14.93527
       O     0.66737   15.65346   14.15107
      H1     0.33855   16.56466   14.36190
       H    -5.68127   17.55712   13.73938
       O    -5.91526   18.28136   14.29927
      H1    -6.53081   17.88191   14.96568
       H    -5.99272   15.49480   17.66577
       O    -6.57179   14.73641   17.45639
      H1    -7.37240   14.87111   17.96528
       H    -4.04930   14.98844   14.21226
       O    -3.51757   14.20830   14.37645
      H1    -2.84816   14.28784   13.69267
       H    -8.07059   15.06241   13.08050
       O    -7.70988   14.38145   13.67323
      H1    -7.14368   13.76983   13.17321
       H    -2.70762   17.97429   13.48993
       O    -2.59227   17.80779   12.52322
      H1    -1.63821   17.61180   12.46426
       H    -1.08696   13.95016   12.24859
       O    -1.17369   13.87046   13.19567
      H1    -0.55616   14.51299   13.60164
       H     2.21385   17.04197   18.19441
       O     2.00180   16.33005   18.79532
      H1     1.05564   16.20078   18.63722
       H    -3.60331   17.63928   16.43278
       O    -3.56349   18.12892   15.61206
      H1    -4.48749   18.11328   15.31461
       H    -4.21154   16.57994   12.22856
       O    -5.03394   16.13886   12.05545
      H1    -5.49892   16.69323   11.44099
       H    -1.60662   18.20700   15.61131
       O    -0.73370   18.21822   15.27868
      H1    -0.36321   18.92975   15.83525
       H    -5.32767   17.15329   18.36512
       O    -4.64647   16.66705   17.84506
      H1    -4.19034   16.10476   18.49201
       H    -1.52313   13.48131   16.89158
       O    -2.14050   14.21176   16.82199
      H1    -2.67392   13.96144   16.08423
       H    -7.70360   18.74771   14.18328
       O    -8.54252   19.08302   13.83536
      H1    -9.20201   18.50635   14.22386
       H    -2.33028   11.31629   14.47524
       O    -1.46581   11.70594   14.75986
      H1    -1.42833   12.52984   14.24194
       H    -5.19137   13.52423   16.88333
       O    -4.98951   12.65434   16.48171
      H1    -4.25198   12.96748   15.95101
       H    -0.34299   16.88908   16.66333
       O    -0.47718   16.22169   17.32710
      H1    -1.06490   15.63168   16.89755
       H    -5.85946   11.71044   13.79472
       O    -5.60131   12.49229   13.29606
      H1    -4.77714   12.70649   13.73365
       H    -6.39120   15.29274   14.12539
       O    -5.90419   15.62455   14.89348
      H1    -6.40980   15.23813   15.59565

