60
frame 2 | Written by MDAnalysis XYZWriter (release 2.4.3)
       H     1.92608   -7.23860  -10.22169
       O     1.74979   -6.78926  -11.06202
      H1     1.93859   -5.84032  -10.89600
       H     0.05904   -4.91145   -9.09474
       O    -0.70455   -4.33526   -9.07038
      H1    -0.77954   -4.23111   -8.11416
       H    -0.82415   -6.43101   -5.30320
       O    -0.16779   -6.80708   -5.92204
      H1    -0.71773   -7.08350   -6.65883
       H    -1.39770   -5.91191   -9.64335
       O    -1.72360   -6.80869   -9.72234
      H1    -1.34649   -7.17313  -10.54958
       H     0.94677   -3.81002  -12.64898
       O     0.85609   -4.20058  -13.49778
      H1     1.70919   -4.01744  -13.92324
       H    -4.27908   -4.97846  -11.23546
       O    -4.03015   -5.07159  -10.34146
      H1    -3.35768   -5.76007  -10.30452
       H     0.91703   -5.94632   -7.15422
       O     1.47132   -5.55652   -7.82848
      H1     1.90277   -4.81926   -7.38224
       H    -4.21995   -6.34664   -7.39396
       O    -4.99289   -6.31841   -7.93127
      H1    -4.85059   -5.56307   -8.54659
       H    -0.85364   -5.12739  -13.33534
       O    -1.43862   -5.77566  -13.70008
      H1    -0.89130   -6.55785  -13.65342
       H    -0.16746   -9.07548  -11.06714
       O    -0.35878   -8.27176  -11.56787
      H1     0.43278   -7.71563  -11.45207
       H    -3.17346   -5.11752  -13.60693
       O    -3.84556   -4.61693  -13.09852
      H1    -4.65519   -4.78073  -13.58428
       H    -0.57061   -3.22878   -5.99006
       O    -1.15866   -3.92627   -6.29664
      H1    -1.56251   -4.20596   -5.48178
       H    -4.69590   -2.70994   -8.64042
       O    -5.42425   -3.38824   -8.71269
      H1    -5.07802   -3.93625   -9.45949
       H    -2.22999   -1.54926  -10.46884
       O    -2.93108   -2.08094  -10.86792
      H1    -3.00447   -2.88348  -10.31438
       H     0.39644   -1.89973  -11.06351
       O     0.47927   -2.84527  -11.04087
      H1     0.05901   -3.13431  -10.23444
       H    -1.14987   -8.12900   -8.61867
       O    -0.57808   -8.72402   -8.11399
      H1    -1.12039   -9.45429   -7.72431
       H    -3.43860   -1.65926   -7.02489
       O    -2.94717   -2.19916   -7.64512
      H1    -2.50258   -2.84910   -7.09111
       H     3.14087   -7.61047   -8.41217
       O     2.59593   -8.23264   -8.98116
      H1     1.71039   -8.17658   -8.58842
       H    -4.81015   -9.06728  -12.53945
       O    -3.94532   -8.78668  -12.19050
      H1    -4.19436   -8.32039  -11.39495
       H    -6.07103   -8.02961  -10.55126
       O    -5.50509   -8.39901   -9.83866
      H1    -5.44177   -7.62796   -9.26596

