60
frame 0 | Written by MDAnalysis XYZWriter (release 2.4.3)
       H    14.68307   -2.55877   -4.20127
       O    15.10455   -2.87028   -3.39121
      H1    15.03414   -3.84317   -3.46472
       H    14.57889   -9.33601   -1.10302
       O    13.82526   -9.85118   -1.42711
      H1    14.17998  -10.75030   -1.50237
       H    12.20453   -6.16470   -1.51083
       O    13.16801   -6.19302   -1.37193
      H1    13.32863   -5.33815   -0.93229
       H    16.18318   -6.97481    1.92354
       O    16.64623   -7.54702    1.30297
      H1    17.57906   -7.22942    1.39895
       H    17.33803   -5.08776   -5.07257
       O    17.50380   -4.15234   -4.99713
      H1    18.28431   -4.14741   -4.43146
       H    15.00531  -12.99905   -2.50846
       O    15.06641  -12.22097   -1.94050
      H1    14.67891  -12.52498   -1.09431
       H    17.47176   -8.73660   -5.86464
       O    17.57555   -9.57911   -6.29682
      H1    18.32575   -9.40575   -6.91565
       H    13.54868   -7.54943    0.54002
       O    13.42764   -8.13070    1.34303
      H1    12.96527   -8.85938    0.90006
       H    14.32546  -11.52980   -6.05167
       O    15.19535  -11.80004   -6.39440
      H1    15.78518  -11.51438   -5.69577
       H    11.08715   -9.81531    0.06301
       O    11.90900  -10.18873    0.36039
      H1    12.53195   -9.98664   -0.33590
       H    14.60364   -7.23513   -1.03356
       O    15.46686   -7.64583   -1.13760
      H1    15.91817   -7.42631   -0.30542
       H    17.89670  -11.94173   -4.00726
       O    16.95266  -11.78955   -4.07792
      H1    16.63657  -11.68076   -3.17275
       H    17.11713   -7.31491   -4.43743
       O    16.86192   -7.02109   -5.34467
      H1    16.00460   -7.39077   -5.51220
       H    16.99250   -9.35357    1.32034
       O    17.46715  -10.15275    1.60031
      H1    18.36353   -9.88304    1.85663
       H    15.39235   -6.22392   -4.36892
       O    14.67114   -5.92615   -3.80485
      H1    14.90161   -6.26085   -2.93180
       H    17.97297   -8.68440   -2.63919
       O    17.19195   -8.53921   -3.18833
      H1    16.55485   -8.37881   -2.47766
       H    13.79761   -9.34205   -3.45292
       O    13.59089   -9.29527   -4.38936
      H1    12.66684   -8.98615   -4.40713
       H    17.63519  -13.04397    0.99200
       O    16.75442  -12.68707    1.11317
      H1    16.92980  -11.72988    1.19163
       H    12.61599   -6.28892   -3.92347
       O    11.70357   -6.36455   -4.19233
      H1    11.72353   -6.85154   -5.04098
       H    14.33918   -8.18793   -5.62392
       O    14.58092   -7.88195   -6.53577
      H1    14.71302   -8.69486   -7.02980

