60
frame 3 | Written by MDAnalysis XYZWriter (release 2.4.3)
       H     4.93781   14.49545  -11.93767
       O     4.29420   14.28642  -11.27878
      H1     3.77878   13.59387  -11.72790
       H     3.22361   13.09898  -18.33528
       O     3.66427   12.89812  -17.50206
      H1     4.42819   13.48659  -17.47684
       H     0.68927   12.12846  -17.43261
       O     0.21591   11.49247  -17.98103
      H1     0.57341   10.61519  -17.75930
       H     3.80691   14.70158   -9.42348
       O     3.29292   14.48029   -8.63439
      H1     3.87036   13.89345   -8.11976
       H     0.04445   12.64314   -9.64569
       O    -0.89275   12.57037   -9.55598
      H1    -1.05389   12.63045   -8.60098
       H     2.36057   16.35742  -11.35996
       O     2.43255   16.94122  -10.60727
      H1     1.88765   17.68383  -10.90674
       H     5.93493   12.50072   -9.24827
       O     6.18488   13.37190   -9.63932
      H1     5.41191   13.48077  -10.20399
       H     2.42841   13.26237   -9.52715
       O     1.86258   12.76112  -10.16569
      H1     1.83334   11.86567   -9.81501
       H     2.18352   14.02062  -16.16108
       O     1.33980   13.85061  -15.75112
      H1     0.75528   14.35750  -16.34912
       H     5.39519   11.22943  -13.99592
       O     5.94193   11.36091  -13.19605
      H1     6.83701   11.07789  -13.42080
       H     1.87419   11.03679  -14.88609
       O     0.98027   11.04754  -14.49231
      H1     0.73700   11.99960  -14.56369
       H     6.58517   13.11204  -12.80846
       O     6.49941   14.06686  -13.00049
      H1     6.09429   14.13574  -13.86181
       H     2.33478   12.54093  -12.68313
       O     2.92133   12.99991  -13.31711
      H1     3.16184   12.28446  -13.92250
       H     3.56407   10.64898  -11.45660
       O     4.26574   11.18944  -11.06887
      H1     4.95704   11.31278  -11.71850
       H    -0.74793   17.03330  -12.13868
       O    -1.37093   16.40165  -12.47537
      H1    -0.77914   15.73292  -12.84147
       H     6.06314    9.24014  -13.00723
       O     6.09019    8.26491  -13.09724
      H1     6.46973    8.00379  -12.25654
       H     2.29751   15.12438  -13.07550
       O     1.97741   16.06055  -13.04725
      H1     2.60236   16.61221  -13.58984
       H    -0.99249   13.82664  -13.99268
       O    -0.24069   14.19614  -13.53180
      H1     0.46741   14.12278  -14.14427
       H     1.09182    9.36229  -11.57502
       O     1.94624    9.41134  -12.06135
      H1     1.71903    9.83366  -12.90442
       H     3.54015   11.25329  -16.09291
       O     3.68537   10.97408  -15.16932
      H1     3.70943   10.02534  -15.23517

