60
frame 3 | Written by MDAnalysis XYZWriter (release 2.4.3)
       H   -15.01409   10.75099   12.63871
       O   -15.90726   10.57806   12.30800
      H1   -16.18204    9.81673   12.80412
       H   -15.62553    3.91297   15.82324
       O   -15.85440    4.36282   15.02591
      H1   -15.01823    4.66434   14.65889
       H   -14.01389    7.51633   18.35267
       O   -14.19654    7.65118   17.38830
      H1   -15.02430    7.21987   17.17852
       H   -17.83054    9.05881   15.26825
       O   -17.48084    9.72997   15.84844
      H1   -16.51245    9.66468   15.61541
       H   -18.17109    5.73720    9.16899
       O   -18.87294    6.36692    9.40044
      H1   -19.66656    5.86275    9.17420
       H   -14.31049    0.51762   13.49955
       O   -15.12046    0.83401   13.93777
      H1   -15.74495    0.71841   13.23089
       H   -18.00321    1.50700   16.02529
       O   -17.92810    1.41734   16.99723
      H1   -17.80829    2.32509   17.32546
       H   -15.65039    4.92412    9.10373
       O   -16.22595    4.53750    8.41399
      H1   -16.65175    3.80915    8.90908
       H   -17.54447    4.62809   13.98866
       O   -18.22437    5.22035   13.67764
      H1   -19.03250    4.85713   14.08912
       H   -16.71717    4.31971   17.82866
       O   -17.51384    3.83217   18.08115
      H1   -18.16743    4.54923   18.19760
       H   -16.25677    7.79933   13.09123
       O   -15.91802    8.23762   13.87706
      H1   -14.98423    8.37692   13.60761
       H   -17.56485    1.07396   11.23130
       O   -17.63761    1.91233   11.67308
      H1   -16.81987    2.29577   11.29900
       H   -14.93628    1.85462   10.20941
       O   -15.03331    2.74292   10.53741
      H1   -14.27499    2.81607   11.12956
       H   -15.01434    4.08019   18.92143
       O   -14.94624    4.62748   18.11121
      H1   -14.24281    4.13038   17.71099
       H   -18.23217    2.67690   13.90047
       O   -18.79679    2.08867   14.46424
      H1   -19.37067    1.62210   13.87736
       H   -18.46426   12.01293   13.25462
       O   -19.16507   11.39202   13.46083
      H1   -18.63874   10.62862   13.66111
       H   -16.52614    5.94331   15.81718
       O   -16.74858    6.67348   16.44612
      H1   -16.57735    7.43848   15.94157
       H   -17.95835    6.71050   12.57618
       O   -17.53440    6.99474   11.76203
      H1   -18.25407    7.07807   11.15175
       H   -15.20462    1.54230   15.62815
       O   -15.30493    2.00154   16.47466
      H1   -16.07066    1.58269   16.89968
       H   -15.81342    6.53189   10.43347
       O   -15.04920    6.46950    9.85433
      H1   -14.26499    6.45595   10.40793

