60
frame 2 | Written by MDAnalysis XYZWriter (release 2.4.3)
       H     4.18670   -5.25476    3.79234
       O     4.04137   -6.07788    3.29489
      H1     4.54754   -5.88592    2.48283
       H     2.10962  -10.19724    4.15236
       O     2.08207   -9.74464    3.28106
      H1     2.56164  -10.33940    2.69546
       H     6.52026   -5.42789    1.11715
       O     5.73088   -5.96042    0.91811
      H1     5.17135   -5.39222    0.39230
       H     5.36954  -11.16578    7.52674
       O     6.08358  -10.60259    7.18360
      H1     6.00235  -10.54118    6.25464
       H    11.28409   -7.10460    4.22105
       O    11.44691   -8.07383    4.35360
      H1    10.59264   -8.46584    4.53979
       H     1.94621   -7.79690    3.34032
       O     1.34595   -7.20743    3.81190
      H1     0.50362   -7.56756    3.47771
       H     8.40128   -6.90373    5.75926
       O     7.80908   -7.65189    5.76113
      H1     8.23758   -8.30637    6.34684
       H     5.60783  -13.35404    2.52713
       O     5.61702  -13.54281    3.47889
      H1     5.45239  -12.70990    3.88957
       H     8.04471   -4.78486    2.64564
       O     7.51198   -4.36474    1.93392
      H1     8.12945   -4.30739    1.20183
       H     8.72739   -6.31601    3.45481
       O     8.63213   -5.58219    4.09037
      H1     9.54786   -5.34995    4.29582
       H     9.21038  -10.27841    3.51771
       O     9.35084  -10.13855    2.58196
      H1     8.78209   -9.37073    2.37312
       H     8.40017  -10.92663    5.68544
       O     9.09717  -10.37615    5.31140
      H1     9.85227  -10.99620    5.40090
       H     5.55873   -7.39851    3.74991
       O     6.17495   -8.13325    3.77723
      H1     6.73928   -7.82756    4.51748
       H     4.84390   -3.62089    5.57350
       O     4.21847   -4.35377    5.52597
      H1     3.81675   -4.34200    6.41023
       H     2.53448   -8.38104    6.91413
       O     3.36268   -8.72305    7.24838
      H1     3.99820   -8.01159    7.10018
       H     4.51889  -10.68074    4.82243
       O     5.43706  -10.63796    4.56206
      H1     5.50371   -9.69222    4.42658
       H     7.57678   -7.74165    2.03779
       O     8.50072   -7.55772    2.23991
      H1     8.86880   -7.19334    1.44359
       H     4.55794   -7.43529    0.31455
       O     4.46032   -8.39501    0.21090
      H1     3.50977   -8.61420    0.33627
       H     5.61172  -10.65187    2.81023
       O     5.55854  -10.73755    1.85435
      H1     5.52424   -9.79871    1.58197
       H     4.85481   -6.21235    6.34900
       O     5.23539   -6.84496    6.96306
      H1     6.12952   -7.03101    6.61465

