60
frame 3 | Written by MDAnalysis XYZWriter (release 2.4.3)
       H     6.83861    4.85473   -9.07015
       O     6.05704    5.21396   -9.51576
      H1     5.36900    5.00433   -8.87389
       H     6.51056    3.85592  -11.60642
       O     7.31254    3.38555  -11.86971
      H1     7.92108    3.49961  -11.13082
       H     6.88580    6.79934  -10.20852
       O     7.28419    7.60562  -10.63399
      H1     8.21299    7.38173  -10.78657
       H     9.80100    5.95557  -12.11306
       O    10.11776    5.84166  -13.00157
      H1     9.29052    5.50007  -13.38079
       H     9.82776    7.31444  -13.66923
       O     9.77485    8.04837  -14.33400
      H1    10.70409    8.17348  -14.56873
       H     4.83961    2.85262   -8.05253
       O     4.22161    3.42171   -8.56840
      H1     3.99435    2.89640   -9.33622
       H     6.66568    5.84868   -6.06941
       O     6.02594    5.14347   -5.90647
      H1     5.25767    5.51854   -5.49073
       H     8.86125    4.65034   -7.58784
       O     8.55585    4.52820   -8.50507
      H1     8.72479    3.60918   -8.68847
       H    10.75988    6.22020  -10.38023
       O     9.79450    6.17961  -10.31742
      H1     9.65565    5.52961   -9.59903
       H     6.65407   10.18424   -8.88862
       O     5.80137   10.65505   -8.89851
      H1     5.52243   10.58854   -9.85166
       H     8.42022    9.79545   -8.12958
       O     7.76211    9.09515   -8.25611
      H1     8.16620    8.58107   -8.96362
       H     7.29651    4.94399  -14.58440
       O     8.08940    4.57601  -14.18432
      H1     7.76041    4.12857  -13.36948
       H     2.46839    5.86555  -10.99392
       O     3.04410    6.64014  -11.00417
      H1     2.53122    7.34991  -11.42595
       H    10.21262    9.70037  -11.78305
       O    10.76214    9.21376  -11.16031
      H1    11.55291    9.10377  -11.68596
       H     5.36798    5.33658  -11.26774
       O     5.14070    4.83517  -12.05389
      H1     4.90835    5.49195  -12.69350
       H     6.06314    9.24014  -13.00723
       O     6.09019    8.26491  -13.09724
      H1     6.46973    8.00379  -12.25654
       H     4.98402    8.59069   -7.52590
       O     4.18872    8.51176   -7.00542
      H1     4.59461    8.54201   -6.11405
       H     2.57555    6.88640   -9.12390
       O     2.16936    7.09615   -8.26540
      H1     2.81788    7.68155   -7.82050
       H     4.81656    7.19416  -13.67320
       O     4.04363    6.65517  -13.88946
      H1     3.42001    6.67265  -13.16441
       H     7.64997    7.68571   -6.97045
       O     7.95329    7.10243   -6.25258
      H1     7.71816    7.65082   -5.46438

