60
frame 3 | Written by MDAnalysis XYZWriter (release 2.4.3)
       H    -8.37926  -16.91177   11.17547
       O    -7.57697  -16.41384   11.03372
      H1    -6.97727  -17.05836   10.62275
       H   -11.05460  -13.32988   16.48606
       O   -10.60991  -12.49282   16.22251
      H1   -10.02945  -12.80001   15.50460
       H    -7.83006  -15.85239   16.29497
       O    -7.07403  -15.95534   16.84655
      H1    -6.41846  -16.34320   16.24281
       H    -8.23726   -8.13076   12.81114
       O    -9.03530   -8.59436   12.97242
      H1    -8.86483   -8.94883   13.84772
       H   -10.98264  -15.51193   16.30800
       O   -11.05204  -15.04937   17.14417
      H1   -10.18324  -14.66256   17.29503
       H    -6.93420  -11.70255   12.06442
       O    -7.00977  -12.16774   11.22423
      H1    -6.19785  -12.69269   11.21759
       H    -4.50162  -12.26577   16.45065
       O    -3.66304  -12.40618   15.98545
      H1    -3.98765  -12.51002   15.08749
       H    -9.72382  -17.12139   15.80887
       O    -9.27156  -16.56638   15.11889
      H1    -8.72125  -17.20663   14.64421
       H    -9.42524  -14.37586    9.95634
       O    -8.92401  -13.66714    9.51386
      H1    -8.29678  -13.35899   10.17190
       H    -5.24411  -16.60423   14.63225
       O    -5.21811  -17.11790   15.43262
      H1    -5.69810  -17.91065   15.16738
       H    -7.90336  -13.10334   14.18255
       O    -8.81521  -12.79907   14.02290
      H1    -8.71292  -11.93223   13.58233
       H    -5.39027  -13.94648   17.47115
       O    -5.90481  -13.18593   17.18250
      H1    -6.72426  -13.62543   16.90545
       H    -4.32293  -13.05778   10.12225
       O    -4.78032  -13.67432   10.75672
      H1    -4.17194  -13.67048   11.48440
       H    -4.69915  -16.32995   12.64299
       O    -5.37229  -15.78930   13.08158
      H1    -6.20814  -15.90445   12.54291
       H   -10.34500  -14.07126   13.54055
       O   -10.95276  -14.79391   13.46774
      H1   -10.49150  -15.51350   13.95586
       H    -6.31175  -11.31308   17.77441
       O    -5.60901  -10.67947   18.02322
      H1    -5.99408   -9.86413   17.64201
       H    -5.28725  -14.05394   13.87178
       O    -5.79216  -13.44077   14.39208
      H1    -5.69023  -13.78728   15.29152
       H    -9.41811   -8.98570   16.18257
       O    -8.64062   -9.17412   15.62868
      H1    -7.87261   -8.78008   16.06757
       H    -9.02515  -12.63519   18.03264
       O    -8.81508  -13.55642   18.22054
      H1    -9.11926  -13.65674   19.11887
       H    -6.30905  -11.49799   14.29659
       O    -6.83450  -10.81612   13.84651
      H1    -7.38833  -10.49357   14.57050

