60
frame 0 | Written by MDAnalysis XYZWriter (release 2.4.3)
       H    12.67592  -12.92362   -1.99700
       O    12.02759  -12.72094   -2.67638
      H1    12.56748  -12.59939   -3.46910
       H    14.57889   -9.33601   -1.10302
       O    13.82526   -9.85118   -1.42711
      H1    14.17998  -10.75030   -1.50237
       H    10.13154  -10.35711   -3.72067
       O    10.84304  -10.03896   -3.12949
      H1    10.92648  -10.75184   -2.51086
       H    11.17175  -14.24567   -7.05665
       O    11.55800  -14.55726   -6.23923
      H1    12.48140  -14.83429   -6.44212
       H    12.25522  -15.89224   -0.65570
       O    12.55487  -15.55076    0.18964
      H1    13.48110  -15.35059    0.04205
       H    15.00531  -12.99905   -2.50846
       O    15.06641  -12.22097   -1.94050
      H1    14.67891  -12.52498   -1.09431
       H    11.83701  -12.54399   -5.60332
       O    12.59417  -12.05085   -5.30374
      H1    12.26946  -11.13689   -5.36213
       H    12.34985  -11.78659    0.14185
       O    12.92624  -12.56104    0.27735
      H1    12.37830  -13.15674    0.82483
       H    14.43547  -13.55997   -6.62239
       O    14.34871  -14.51397   -6.53570
      H1    14.57253  -14.75413   -5.64337
       H    14.32546  -11.52980   -6.05167
       O    15.19535  -11.80004   -6.39440
      H1    15.78518  -11.51438   -5.69577
       H     9.18652  -13.42853   -5.00936
       O     8.46380  -12.84878   -5.21546
      H1     8.57151  -12.72221   -6.17032
       H    11.08715   -9.81531    0.06301
       O    11.90900  -10.18873    0.36039
      H1    12.53195   -9.98664   -0.33590
       H    10.47612  -13.89186   -3.37186
       O     9.78032  -14.57589   -3.31414
      H1    10.16941  -15.35779   -3.75777
       H    14.22306  -17.30501   -2.32635
       O    14.07772  -16.39861   -2.67750
      H1    14.90760  -16.20918   -3.14720
       H    11.16518  -16.13382   -5.44597
       O    10.64239  -16.68770   -4.82535
      H1    11.12222  -17.52091   -4.70760
       H     9.62599  -12.78351   -0.97499
       O     8.98266  -12.42577   -1.63930
      H1     8.82282  -13.20673   -2.18919
       H    17.89670  -11.94173   -4.00726
       O    16.95266  -11.78955   -4.07792
      H1    16.63657  -11.68076   -3.17275
       H     7.73592   -9.98058   -4.60788
       O     8.67315  -10.29839   -4.57422
      H1     8.63296  -11.24716   -4.65814
       H    13.79761   -9.34205   -3.45292
       O    13.59089   -9.29527   -4.38936
      H1    12.66684   -8.98615   -4.40713
       H    16.27499  -14.34548   -2.77401
       O    15.87686  -14.46665   -3.64840
      H1    16.31374  -13.70944   -4.11033

