60
frame 3 | Written by MDAnalysis XYZWriter (release 2.4.3)
       H    13.18065    5.23827    1.64692
       O    12.90240    4.51071    2.20077
      H1    13.69853    4.39586    2.76823
       H    13.86844    7.76317   -0.57209
       O    13.83745    8.32819    0.20011
      H1    14.16311    7.80225    0.94396
       H     8.72013    7.44698   -0.60160
       O     7.83121    7.16864   -0.85789
      H1     7.74042    7.38058   -1.78313
       H     7.55250    3.65877   -2.98110
       O     8.08716    4.27604   -3.47903
      H1     7.50850    4.50109   -4.18646
       H    15.35901    5.43106   -2.63604
       O    15.28335    4.45354   -2.67810
      H1    16.19277    4.15481   -2.63604
       H    12.74069   -0.43115   -2.41223
       O    13.31035    0.31288   -2.12388
      H1    13.43274    0.84493   -2.91133
       H    10.87589    3.88196   -3.00082
       O    10.54808    3.58704   -3.85789
      H1     9.58861    3.55575   -3.77175
       H    11.53883    6.90932   -3.07324
       O    11.41940    7.53714   -2.38241
      H1    10.76401    8.14354   -2.80680
       H     8.97311   -0.03220   -2.45953
       O     8.71357    0.60212   -1.78596
      H1     9.61342    0.89985   -1.49075
       H    14.43727    2.28613    1.37250
       O    14.95228    2.79410    0.73785
      H1    14.30923    3.38653    0.31818
       H    11.07390    4.85268    1.85219
       O    10.34791    5.48714    1.93703
      H1    10.69439    6.26692    1.50201
       H    10.32173    8.44188    0.76442
       O    10.44651    7.62701    0.32484
      H1    10.89136    7.91419   -0.47779
       H     8.57749    5.44602   -0.21747
       O     8.43165    4.51240    0.12595
      H1     9.07318    4.47979    0.86105
       H    14.05563    4.82241   -1.15900
       O    13.56091    4.80266   -0.36516
      H1    12.64991    4.70077   -0.66238
       H    10.40740    2.34012    2.22771
       O    10.93663    2.68014    1.52344
      H1    11.68612    3.03651    1.94076
       H    10.45799    3.66765   -0.57135
       O    10.95644    4.28123   -1.13762
      H1    10.37874    5.04371   -1.23344
       H     9.35935    6.08568   -5.77395
       O     9.84212    5.26999   -5.81563
      H1     9.84351    5.00028   -4.89009
       H     6.25481    5.26778    2.18226
       O     6.36078    5.83439    1.42604
      H1     7.09809    5.43421    0.90130
       H     7.41289    3.15211   -1.05614
       O     6.94110    2.61993   -1.71994
      H1     7.50734    1.85182   -1.79033
       H    11.09794    1.42683    0.15186
       O    11.14164    0.93274   -0.66889
      H1    12.08620    1.02105   -0.92490

