60
frame 2 | Written by MDAnalysis XYZWriter (release 2.4.3)
       H    15.13456   -3.57130   -2.40163
       O    15.65166   -3.97889   -1.63634
      H1    15.70435   -4.89680   -1.89037
       H    14.11501    1.12078    3.88313
       O    14.46019    0.62493    3.14417
      H1    13.91658   -0.16661    3.26250
       H    12.91624   -6.48985   -2.03555
       O    12.45981   -6.01373   -2.75869
      H1    13.21915   -5.77544   -3.29630
       H    13.21956   -7.53538    0.15151
       O    12.55272   -6.83375    0.02567
      H1    11.81303   -7.31505   -0.30065
       H    11.85464   -5.85545    1.44331
       O    11.45411   -5.00732    1.68009
      H1    11.32608   -4.56444    0.80799
       H    11.48132   -4.95294    3.44821
       O    11.62543   -5.26975    4.37840
      H1    11.54039   -4.48866    4.92100
       H    17.53637   -3.62731   -1.68337
       O    18.47510   -3.42390   -1.79366
      H1    18.79887   -4.07703   -2.40164
       H    17.58509   -2.46101    3.07482
       O    18.10350   -2.60101    3.87452
      H1    17.98392   -3.53427    4.15370
       H    12.81716   -2.22895    4.17177
       O    13.25302   -2.35636    3.30456
      H1    12.56298   -2.17062    2.64821
       H    15.07756   -5.34732    3.67409
       O    14.92071   -4.46341    3.35523
      H1    14.05512   -4.29714    3.74169
       H    14.72970   -1.74495   -0.50848
       O    14.99425   -0.83973   -0.69935
      H1    14.36710   -0.27361   -0.25831
       H    17.42724   -4.32052    1.41990
       O    16.55257   -4.63916    1.25958
      H1    16.09819   -4.58795    2.10928
       H    16.45828   -1.19953    1.03473
       O    16.80989   -1.86092    1.63730
      H1    16.54352   -2.65422    1.17876
       H    18.54033   -6.03535   -0.18646
       O    18.09474   -6.79122    0.16957
      H1    17.60807   -6.49252    0.92182
       H    11.73216   -1.90842   -2.86040
       O    11.56111   -1.30675   -3.57504
      H1    12.45071   -1.06215   -3.86201
       H     9.78666   -5.67685   -0.00899
       O     9.58215   -6.60677   -0.12914
      H1     8.88495   -6.56115   -0.78745
       H     8.76069   -3.57828   -0.63185
       O     9.51127   -3.76418   -0.03483
      H1    10.04245   -2.96871    0.09177
       H    14.26108   -3.66573   -0.25370
       O    13.62321   -3.21663    0.31274
      H1    13.83950   -3.59395    1.16691
       H    11.74928   -1.20313    0.95757
       O    11.15816   -1.78197    1.40876
      H1    10.25053   -1.51667    1.16999
       H    12.03425   -4.45243   -2.07495
       O    11.83254   -3.60731   -1.67331
      H1    12.49395   -3.50809   -0.96366

