60
frame 2 | Written by MDAnalysis XYZWriter (release 2.4.3)
       H    -1.18566    9.42059    6.60477
       O    -0.59921   10.11732    6.27509
      H1     0.18541    9.61821    6.02325
       H    -6.09742    9.12217    8.89715
       O    -6.03152    9.68810    9.68353
      H1    -5.40508   10.35725    9.40189
       H    -4.57746   11.94596    5.51876
       O    -4.97471   11.56765    6.28539
      H1    -5.35655   10.75898    5.90509
       H    -5.49361    7.29253    6.87153
       O    -5.51909    7.93437    7.60375
      H1    -4.65143    8.30828    7.62444
       H    -5.89486   14.13696    1.89777
       O    -5.89330   13.97363    2.83725
      H1    -6.55256   13.27038    2.94970
       H    -5.33963    9.66729    4.46142
       O    -6.20701    9.49096    4.85306
      H1    -6.81585    9.72528    4.13809
       H    -8.48686    9.90533    6.22713
       O    -7.96405    9.54979    6.96594
      H1    -7.09398    9.50229    6.55741
       H    -3.62260   14.59512    5.54018
       O    -2.68603   14.58369    5.76004
      H1    -2.69724   13.98043    6.51868
       H    -7.21338   11.51930    2.37062
       O    -6.89653   11.26507    1.49721
      H1    -5.92984   11.31728    1.55685
       H    -6.06692   12.84715    7.06386
       O    -6.76606   13.41152    7.44481
      H1    -7.49598   12.83537    7.72128
       H    -8.20578   11.78086    4.69010
       O    -8.07597   12.27792    3.87660
      H1    -8.73573   13.00751    3.89416
       H    -0.32534   15.34513    3.70946
       O    -1.08242   14.85338    3.36851
      H1    -1.57003   14.58074    4.17993
       H    -2.65947    8.44875    4.13965
       O    -3.34129    7.97704    4.63952
      H1    -3.91484    7.61048    3.92073
       H    -3.19572    9.12356    6.16799
       O    -3.18290    9.41246    7.06684
      H1    -3.42494   10.36782    7.03668
       H    -3.40810   12.79033    8.53725
       O    -2.92509   13.58111    8.33689
      H1    -3.02083   14.18918    9.08185
       H    -1.18826   10.05348    3.02107
       O    -1.57862    9.77735    3.87595
      H1    -0.96130   10.06105    4.55352
       H    -4.42020   11.72063   10.74013
       O    -4.57129   11.98486    9.85083
      H1    -5.23876   12.67952    9.94930
       H    -5.57000   14.87344    4.25692
       O    -5.31654   15.13228    5.16063
      H1    -6.18560   15.10228    5.57377
       H    -3.24331   10.72478    3.96033
       O    -4.10389   11.06065    3.70069
      H1    -3.96119   11.67053    2.96051
       H    -0.54625   10.98772    8.49754
       O    -1.09504   11.45643    9.16508
      H1    -1.74860   11.95003    8.67076

