60
frame 3 | Written by MDAnalysis XYZWriter (release 2.4.3)
       H    -3.58943   -9.40409   -4.55685
       O    -4.33116   -8.77948   -4.46698
      H1    -4.78689   -8.84565   -5.32890
       H    -3.84701  -13.47670   -3.84599
       O    -3.81933  -13.32355   -4.80066
      H1    -4.41779  -12.54898   -4.92544
       H    -2.10011   -7.22219   -5.86953
       O    -1.72188   -7.54945   -5.02248
      H1    -2.55295   -7.60806   -4.48781
       H    -6.56386   -5.90383   -3.84085
       O    -6.48260   -6.28445   -4.72096
      H1    -5.83888   -5.70110   -5.15939
       H    -3.33794  -10.95623   -1.99498
       O    -2.66033  -10.31439   -1.79670
      H1    -3.07445   -9.83474   -1.07590
       H    -3.72130   -7.59846   -3.25378
       O    -3.21591   -6.81409   -2.96473
      H1    -2.38130   -7.18972   -2.67823
       H    -4.40639   -3.80352   -6.63167
       O    -4.94210   -4.60588   -6.81746
      H1    -5.17251   -4.57151   -7.73404
       H    -3.80595   -6.21337   -6.87170
       O    -3.05649   -6.71553   -7.19924
      H1    -2.56866   -6.04619   -7.67433
       H    -4.10641   -6.42945   -1.55118
       O    -4.55332   -6.43356   -0.67919
      H1    -3.85376   -6.29672   -0.01581
       H    -2.83014  -11.44488   -4.76830
       O    -2.41504  -10.59494   -4.96138
      H1    -1.65116  -10.55744   -4.38225
       H    -8.83635   -9.04295   -4.72181
       O    -9.10664   -9.62814   -4.00327
      H1    -8.24345   -9.92161   -3.60442
       H    -6.15266  -12.02404   -6.25268
       O    -5.44262  -11.37267   -6.18890
      H1    -4.94312  -11.48198   -7.01627
       H    -1.32964  -11.07524   -7.94164
       O    -1.97226  -10.38203   -7.72281
      H1    -2.10276  -10.37348   -6.77740
       H    -5.66158   -8.77289   -7.74203
       O    -5.99376   -8.98350   -6.87585
      H1    -6.01997   -9.96491   -6.82133
       H    -8.75303   -6.50881   -3.80938
       O    -9.43106   -5.98110   -3.38574
      H1    -9.21609   -5.96939   -2.48216
       H    -3.39689  -11.44064   -8.64267
       O    -4.19093  -11.98912   -8.63506
      H1    -4.62293  -11.91742   -9.49093
       H    -5.59102   -9.78395   -3.41514
       O    -6.41864  -10.09393   -2.94163
      H1    -6.39545  -11.05208   -3.14667
       H    -8.95332   -8.61313   -6.60777
       O    -8.82444   -7.87496   -6.00473
      H1    -7.87723   -7.84256   -5.86210
       H    -4.54251   -7.31061   -9.52384
       O    -4.56001   -8.15414   -9.06127
      H1    -3.92381   -8.07619   -8.33223
       H    -8.16482  -12.49718   -3.79053
       O    -7.25688  -12.76088   -3.54808
      H1    -7.37030  -13.41520   -2.86840

