60
frame 2 | Written by MDAnalysis XYZWriter (release 2.4.3)
       H    -4.88641   10.74389   -5.62406
       O    -4.01989   11.02008   -5.31241
      H1    -3.45341   11.05392   -6.07543
       H    -5.82448   12.91355   -7.37697
       O    -5.12763   12.70481   -8.01619
      H1    -4.40433   12.40700   -7.45911
       H    -3.05886   13.90532   -4.62343
       O    -3.96567   13.60797   -4.44443
      H1    -3.84918   12.66259   -4.49667
       H    -1.75324   13.69319  -11.70328
       O    -0.91965   13.98919  -11.37474
      H1    -0.66234   14.70106  -12.00506
       H    -1.99309    8.93724   -9.76363
       O    -2.51952    8.69693   -8.99329
      H1    -1.89203    8.79463   -8.28609
       H     0.85521    9.61575   -7.28874
       O     1.64190   10.04199   -7.60772
      H1     2.16765    9.31453   -7.92598
       H     1.84821   14.21959   -7.21232
       O     1.46570   14.19786   -6.31790
      H1     1.78700   14.98832   -5.90971
       H    -1.92549   11.08290   -7.84852
       O    -2.57956   11.76378   -7.57642
      H1    -2.02612   12.53773   -7.36468
       H    -0.04698   11.53942  -10.01543
       O    -0.89653   11.08218  -10.08658
      H1    -1.49697   11.82617   -9.83921
       H     0.57499   11.02804   -4.32386
       O    -0.26992   10.81450   -4.74197
      H1    -0.90237   10.63897   -3.98250
       H     1.87113   12.93444   -9.24314
       O     1.65790   12.08865   -9.67613
      H1     1.79117   11.46809   -8.96343
       H    -0.78658    8.37708   -6.45308
       O    -0.93870    9.24782   -6.88496
      H1    -0.80235    9.82841   -6.12222
       H    -1.37442   13.26318   -3.22188
       O    -1.32760   12.65580   -2.45746
      H1    -1.31613   13.23058   -1.70236
       H     0.29401   16.52677  -10.49633
       O    -0.36847   16.34375   -9.81439
      H1    -0.68364   15.44805  -10.02230
       H    -5.76036   15.29416   -6.54829
       O    -5.24622   15.81424   -7.19224
      H1    -4.66622   15.14676   -7.54701
       H    -3.37036   14.59507  -10.43995
       O    -3.78272   14.69846   -9.58418
      H1    -4.26219   13.84833   -9.45252
       H    -1.47806   14.18223   -5.52153
       O    -1.53821   14.64542   -4.66217
      H1    -1.66433   15.54489   -4.96853
       H    -5.23853   11.18552   -9.18752
       O    -5.22629   10.64121   -9.97580
      H1    -5.99943   10.09683   -9.83809
       H    -3.63329   16.42815   -6.52134
       O    -2.77640   16.72415   -6.25993
      H1    -2.65623   17.55687   -6.74533
       H    -1.72438   15.10527   -7.02238
       O    -1.29311   14.23976   -7.14685
      H1    -0.39917   14.43360   -6.97975

