60
frame 2 | Written by MDAnalysis XYZWriter (release 2.4.3)
       H    13.86061   10.29966   -3.40971
       O    14.22820   10.81604   -2.66859
      H1    14.99274   11.25159   -3.03941
       H    19.23516   11.32712   -4.23944
       O    19.25020   11.08489   -3.32632
      H1    18.39391   11.35772   -2.96123
       H    16.40168   15.65759   -9.83523
       O    17.08146   15.46738  -10.52934
      H1    16.81916   14.61033  -10.88309
       H    18.12959   12.04889   -7.15920
       O    17.76602   12.02547   -8.03094
      H1    18.08029   12.88209   -8.40477
       H    13.21609   12.87240   -8.43465
       O    12.97027   12.18622   -9.05722
      H1    13.54815   11.46471   -8.80902
       H    17.12411   17.37318   -7.84277
       O    17.97593   17.16286   -7.44647
      H1    18.14182   17.79980   -6.76886
       H    15.36467    8.77447   -4.28262
       O    16.30030    8.64158   -4.41595
      H1    16.34263    7.84385   -4.96181
       H    11.53144   14.82312   -5.43448
       O    12.12601   15.55461   -5.45580
      H1    11.73025   16.15073   -6.08980
       H    13.37612   12.09233   -2.20289
       O    12.75413   12.84563   -2.10447
      H1    13.16688   13.59444   -2.58915
       H    18.77052   15.16418   -7.83359
       O    18.74664   14.58256   -8.60271
      H1    18.34897   15.14432   -9.26546
       H    17.34858   10.60413   -9.03075
       O    17.13818    9.70733   -9.29596
      H1    17.15618    9.26792   -8.45150
       H    16.58421   12.38418   -1.78330
       O    16.71988   12.13587   -2.72274
      H1    17.07812   12.93980   -3.11802
       H    14.25609   14.03540   -7.51009
       O    13.48850   14.50542   -7.89160
      H1    13.00593   14.75558   -7.10941
       H    11.58911   10.91661   -6.11430
       O    11.99020   10.99062   -5.23514
      H1    12.96892   10.95939   -5.37062
       H    14.50014   16.04560   -9.05687
       O    15.20691   16.68061   -9.09939
      H1    15.05337   17.12319   -9.95965
       H    15.93271   12.74337   -6.47460
       O    15.93898   13.68558   -6.72970
      H1    16.48213   13.70684   -7.52716
       H    15.24644   14.65431   -3.44094
       O    14.43790   14.94205   -3.00185
      H1    14.07615   15.65147   -3.54443
       H    14.08513    8.97929   -8.32623
       O    14.41351    9.88307   -8.19358
      H1    15.25231    9.93607   -8.68021
       H    15.22688   10.51918   -6.49185
       O    15.51582   10.94895   -5.64885
      H1    15.85587   10.17939   -5.17186
       H    16.75273   14.80088   -5.09831
       O    16.65944   15.38016   -4.34896
      H1    17.54144   15.46322   -3.97772

