60
frame 2 | Written by MDAnalysis XYZWriter (release 2.4.3)
       H    -1.49717   -0.90388    9.44145
       O    -1.11639   -0.11657    9.01559
      H1    -1.52838    0.68966    9.35044
       H    -3.72347   -5.06361   11.63241
       O    -2.89684   -4.91544   12.13463
      H1    -3.03244   -4.02826   12.48431
       H    -2.97561   -2.62955    9.52868
       O    -3.68070   -2.79045    8.87282
      H1    -3.64933   -2.03503    8.31500
       H    -3.19673   -0.64619    6.48130
       O    -3.99978   -0.71553    6.99831
      H1    -4.52021   -1.39992    6.53401
       H    -2.89254   -0.97870   11.97398
       O    -3.09166   -0.10164   11.59785
      H1    -4.06725   -0.02826   11.67338
       H     1.05198   -3.17994    8.02765
       O     0.10888   -3.46620    8.10181
      H1     0.12173   -4.25763    7.51953
       H    -5.71088   -1.09358    3.17655
       O    -5.01283   -0.47154    3.41218
      H1    -4.26063   -1.05339    3.63110
       H    -2.48308   -6.09329    7.03668
       O    -3.36174   -6.22014    7.42513
      H1    -3.14620   -6.28596    8.36425
       H    -5.88875   -4.64435   10.36221
       O    -5.65210   -4.51390   11.28120
      H1    -5.85774   -5.35276   11.69674
       H    -3.93864    2.24995    8.90431
       O    -4.67449    1.67394    8.65618
      H1    -4.31875    0.93761    8.12023
       H    -0.97382   -2.46087   11.22499
       O    -1.35508   -2.43037   10.34220
      H1    -0.61851   -2.69290    9.78653
       H    -4.11268   -4.73158    6.24491
       O    -4.50132   -4.40452    5.43027
      H1    -5.26780   -3.86824    5.73829
       H    -6.87996   -1.89220    5.92635
       O    -6.10181   -2.36634    6.27673
      H1    -6.31502   -2.53077    7.19677
       H    -5.25247   -2.28207    9.66233
       O    -5.94505   -1.94008   10.26643
      H1    -6.00888   -2.66806   10.90260
       H    -7.63312   -3.74738    8.44312
       O    -7.04755   -4.49112    8.67523
      H1    -7.17188   -4.99985    7.85316
       H    -5.86351   -0.22285   10.76527
       O    -5.86151    0.71256   11.06483
      H1    -5.28598    1.15290   10.42878
       H    -4.78357   -2.15085   12.79939
       O    -3.96732   -2.57581   13.02225
      H1    -3.68472   -2.07620   13.80721
       H    -1.23308   -0.92015    6.53972
       O    -1.24393   -1.77982    6.07614
      H1    -0.94127   -2.34636    6.80335
       H    -1.92251   -5.14223   10.32690
       O    -1.31410   -5.43744    9.65070
      H1    -1.17163   -4.67355    9.06967
       H    -3.56261   -3.07859    4.59665
       O    -2.99620   -2.42632    4.11756
      H1    -2.37059   -2.12118    4.76169

