60
frame 3 | Written by MDAnalysis XYZWriter (release 2.4.3)
       H    13.67470  -15.08128  -11.48327
       O    13.46726  -14.16368  -11.68441
      H1    14.29418  -13.72407  -11.54496
       H    14.24512  -16.59144  -16.09363
       O    13.75643  -16.53441  -16.91798
      H1    12.83775  -16.65020  -16.65022
       H    17.71546  -13.25063  -11.42677
       O    18.48356  -12.73276  -11.19848
      H1    18.23081  -11.79115  -11.25381
       H    14.40833  -12.68736  -17.04234
       O    14.88285  -12.58730  -16.20998
      H1    14.46271  -13.31024  -15.65210
       H    17.49048  -15.90645   -9.88814
       O    17.04033  -15.70839   -9.07470
      H1    17.74868  -15.72236   -8.39588
       H    10.37960  -17.41035  -16.13290
       O    11.15606  -16.95811  -15.73446
      H1    11.38360  -17.56300  -14.97886
       H    16.21609  -16.41269  -15.32193
       O    15.53406  -16.14852  -14.64265
      H1    15.66837  -16.80951  -13.96835
       H    16.61848  -16.72474  -12.32022
       O    16.04145  -17.46170  -12.32500
      H1    16.46643  -18.07792  -11.72200
       H    15.26964  -19.23592  -16.70195
       O    15.33135  -18.74790  -17.53905
      H1    14.54310  -18.16017  -17.54637
       H    15.92442  -12.10963  -11.01128
       O    15.85179  -12.64897  -11.81163
      H1    15.52226  -12.01214  -12.47346
       H    12.14630  -14.45380  -10.07138
       O    11.79589  -14.12990   -9.22863
      H1    11.19840  -14.84669   -9.00541
       H    17.15718  -15.16301  -13.81958
       O    17.72657  -15.01013  -13.03954
      H1    18.57985  -15.05760  -13.47800
       H    13.69911  -14.12301  -13.41588
       O    13.69948  -14.33191  -14.34562
      H1    14.39002  -14.99169  -14.38681
       H    14.34852  -14.19734   -8.61010
       O    15.13395  -13.76129   -8.97820
      H1    15.76753  -14.47099   -9.02287
       H    12.39883  -18.50103  -12.86823
       O    11.56060  -18.08806  -12.60552
      H1    11.06379  -18.83868  -12.24860
       H    14.41021  -17.37195  -11.26615
       O    13.64581  -16.92362  -10.90794
      H1    12.90103  -17.17379  -11.46589
       H    11.16291  -15.90372  -12.25535
       O    10.56025  -15.47867  -11.63588
      H1    10.38801  -14.63538  -12.05519
       H    17.71806  -16.40844  -17.09570
       O    16.75660  -16.29788  -17.09499
      H1    16.49827  -17.14080  -17.49144
       H    16.11884  -16.39950   -7.53107
       O    16.00188  -16.71336   -6.64383
      H1    15.27860  -16.20902   -6.31850
       H    19.05548  -17.45291  -11.80653
       O    18.69705  -17.03023  -11.00358
      H1    18.67994  -17.74234  -10.35197

