60
frame 3 | Written by MDAnalysis XYZWriter (release 2.4.3)
       H    -2.78014   -6.15188    1.88031
       O    -2.56611   -5.56557    1.14543
      H1    -2.60328   -4.68842    1.53220
       H    -0.19447   -6.96235   -1.93985
       O    -0.98741   -7.00621   -1.34601
      H1    -0.66435   -7.07888   -0.44396
       H     1.16087  -11.27683    1.06550
       O     0.48378  -11.29678    0.36969
      H1     0.89928  -11.77260   -0.35768
       H    -3.47012   -9.11538    2.69075
       O    -3.42668   -8.97233    3.65664
      H1    -2.92141   -8.16140    3.70023
       H    -3.20497  -10.38185    0.88805
       O    -3.89294   -9.78737    0.61225
      H1    -4.64653  -10.37898    0.46604
       H    -5.15879   -8.44624    4.03480
       O    -5.95328   -7.92962    4.04612
      H1    -6.55234   -8.46016    3.53284
       H    -3.44885  -13.07983   -1.14513
       O    -3.96007  -13.01607   -1.94906
      H1    -4.87665  -13.16860   -1.70629
       H    -7.33995   -9.09282   -0.87146
       O    -7.03210   -8.38850   -0.24945
      H1    -6.17569   -8.08784   -0.60764
       H    -1.88681  -14.69313    1.09704
       O    -2.41720  -15.34128    0.62513
      H1    -3.30811  -15.00794    0.72142
       H    -0.87328  -11.87718    4.31746
       O    -1.31725  -12.51411    3.75338
      H1    -2.15204  -12.62745    4.25869
       H    -3.33794  -10.95623   -1.99498
       O    -2.66033  -10.31439   -1.79670
      H1    -3.07445   -9.83474   -1.07590
       H    -0.04108  -13.56906    0.72895
       O     0.02269  -13.98709    1.59678
      H1    -0.26944  -13.31395    2.22755
       H    -0.63292  -11.51411   -3.27265
       O    -0.37929  -10.60228   -3.16306
      H1    -0.95058  -10.32702   -2.44715
       H    -4.10641   -6.42945   -1.55118
       O    -4.55332   -6.43356   -0.67919
      H1    -3.85376   -6.29672   -0.01581
       H     0.21198   -8.25698    2.19008
       O     0.35471   -9.21970    2.29327
      H1    -0.19774   -9.55731    1.59471
       H    -1.86499  -11.85632    2.39482
       O    -2.15607  -11.73036    1.47020
      H1    -1.30382  -11.63223    1.04335
       H    -6.37978  -11.84266    0.51743
       O    -5.99347  -11.57263   -0.33521
      H1    -6.75917  -11.10587   -0.69235
       H    -7.47346   -9.16527    1.39743
       O    -7.46722   -9.26239    2.35367
      H1    -7.48013  -10.23988    2.51938
       H    -5.25882  -15.18900    1.53371
       O    -4.94957  -14.74206    0.72238
      H1    -5.61823  -15.03022    0.09776
       H    -5.28262  -12.66473    2.20569
       O    -6.20394  -12.42822    2.30067
      H1    -6.12918  -11.84238    3.08286

