60
frame 2 | Written by MDAnalysis XYZWriter (release 2.4.3)
       H    11.96806   -9.95974   -7.16118
       O    12.18052  -10.87498   -7.33168
      H1    12.26600  -10.91691   -8.30310
       H     9.37030   -7.02410  -12.23877
       O     8.47025   -7.14381  -11.95979
      H1     8.20539   -6.38040  -11.44995
       H     9.85666   -8.53467  -10.43143
       O    10.76163   -8.73683  -10.68901
      H1    10.74109   -8.91482  -11.62720
       H     8.82613  -13.16572   -7.45131
       O     8.08260  -12.74318   -6.98032
      H1     7.43053  -12.52134   -7.66329
       H     5.56188  -13.21054   -8.34627
       O     6.09108  -12.66615   -8.97300
      H1     6.79083  -13.28244   -9.15738
       H    13.13755  -10.88026  -10.59964
       O    13.00499  -10.06570  -10.08182
      H1    12.13335   -9.78630  -10.38638
       H     3.83329   -7.04546   -6.74649
       O     4.37420   -6.95617   -7.53267
      H1     5.09324   -6.35643   -7.24797
       H     5.32006  -10.06999   -8.52471
       O     5.74443   -9.82813   -7.66768
      H1     5.26356   -9.04557   -7.42482
       H     4.86795   -6.88369  -11.70013
       O     5.67604   -6.50312  -11.32189
      H1     5.33402   -5.95112  -10.60628
       H     7.21864  -13.92456  -12.37775
       O     8.02881  -13.69870  -11.88087
      H1     7.97002  -12.74307  -11.83865
       H    11.86603   -7.40875  -13.15901
       O    10.95088   -7.73559  -13.26517
      H1    11.03033   -8.32593  -14.03935
       H     8.85706   -4.28315   -9.30044
       O     8.27147   -4.94484   -9.68255
      H1     7.79176   -5.20858   -8.87761
       H     7.89997   -8.27058   -7.76823
       O     8.06950   -7.67370   -7.04998
      H1     7.73452   -8.19725   -6.30967
       H     7.59400   -8.02418  -10.14841
       O     8.15985   -8.54492   -9.55801
      H1     7.95003   -9.44866   -9.79849
       H    10.81481   -8.18452   -5.58191
       O    11.04970   -8.39987   -6.49261
      H1    10.22171   -8.35863   -6.94834
       H     5.67191  -11.26303  -10.33373
       O     5.54560  -10.35941  -10.66825
      H1     5.87894  -10.38123  -11.55438
       H     7.20068   -4.99463   -6.09477
       O     7.01147   -5.13272   -7.03385
      H1     7.24256   -6.09544   -7.16845
       H    10.86825   -7.08831  -10.56234
       O    10.78522   -6.10713  -10.65691
      H1     9.96269   -5.88331  -10.16197
       H     8.83433  -10.59721  -12.27909
       O     8.00288  -11.02447  -12.18952
      H1     7.49782  -10.72184  -12.93722
       H     8.54026   -8.77328  -14.27666
       O     7.57759   -8.67785  -14.14238
      H1     7.55375   -7.82290  -13.69878

