60
frame 6 | Written by MDAnalysis XYZWriter (release 2.4.3)
       H   -18.14806  -13.43422  -10.78691
       O   -17.31689  -13.17495  -11.24633
      H1   -17.01490  -12.32236  -10.82802
       H   -17.57893  -15.63182   -8.18019
       O   -17.03464  -16.34566   -8.52307
      H1   -16.77150  -16.11225   -9.42239
       H   -17.65712  -14.89140   -4.55656
       O   -18.64722  -14.85860   -4.61388
      H1   -18.94119  -15.79973   -4.54186
       H   -16.44710  -11.12720   -8.86044
       O   -16.56927  -11.02915   -9.84918
      H1   -15.93850  -10.33401  -10.02332
       H   -16.87748  -18.96000   -7.44085
       O   -16.16003  -18.86283   -8.10954
      H1   -16.32623  -17.97480   -8.42717
       H   -17.95493  -17.47008   -7.23625
       O   -18.41329  -18.13660   -6.70965
      H1   -18.95123  -17.65206   -6.07024
       H   -18.77201  -14.26774   -1.11936
       O   -18.42447  -14.87033   -1.83623
      H1   -18.67069  -14.47055   -2.65155
       H   -17.03293  -11.47183   -5.43091
       O   -16.90385  -11.23897   -4.51365
      H1   -17.70473  -10.70359   -4.38900
       H   -19.57583  -15.10176   -7.39592
       O   -18.91883  -14.44263   -7.16329
      H1   -18.67676  -14.65443   -6.23416
       H   -15.76122  -12.11524   -3.67606
       O   -14.94610  -12.69552   -3.49601
      H1   -15.06914  -12.91369   -2.56313
       H   -19.00476  -12.00702  -13.59102
       O   -18.62372  -11.39764  -12.93390
      H1   -18.03330  -12.03103  -12.41005
       H   -17.88478  -17.95292  -10.96909
       O   -17.42527  -18.26731  -11.77362
      H1   -16.51350  -18.49191  -11.54257
       H   -18.07063  -18.15091   -2.36415
       O   -17.83943  -18.43673   -3.23753
      H1   -18.14059  -19.31386   -3.25958
       H   -13.81342  -13.47383   -6.54065
       O   -13.29292  -14.23137   -6.19003
      H1   -12.32894  -14.00386   -6.42991
       H   -14.36121  -12.61677   -8.45601
       O   -14.38839  -12.07390   -7.61052
      H1   -15.34358  -12.06847   -7.54421
       H   -15.21990  -15.74174  -10.67749
       O   -16.15477  -15.75254  -10.99755
      H1   -16.46202  -14.76005  -11.01368
       H   -15.54386  -13.99540   -4.72335
       O   -16.01071  -14.78628   -5.00350
      H1   -15.40816  -15.54120   -4.90413
       H   -13.48125  -13.07873  -10.75984
       O   -13.80932  -13.35810   -9.95272
      H1   -13.45071  -14.17414   -9.54372
       H   -17.91508  -11.90612   -7.56306
       O   -17.12151  -11.62217   -7.10962
      H1   -17.17957  -10.62922   -7.11350
       H   -15.14064  -15.76155   -8.46180
       O   -14.22814  -15.75040   -8.57327
      H1   -13.81418  -15.48717   -7.70069

