60
frame 0 | Written by MDAnalysis XYZWriter (release 2.4.3)
       H   -12.31203    5.85282   -1.56599
       O   -12.43086    5.05595   -1.03751
      H1   -11.59871    4.56318   -1.23043
       H   -11.13678   -2.12646    3.16411
       O   -11.43470   -2.09063    4.05627
      H1   -10.84927   -1.44091    4.46893
       H    -7.74415   -2.26411    2.77926
       O    -8.17869   -2.52047    1.94476
      H1    -8.64194   -1.71773    1.73453
       H   -13.59897    3.82519   -1.94999
       O   -13.63260    3.09129   -2.57781
      H1   -14.42634    3.23707   -3.13637
       H   -13.65602    2.58304    4.06116
       O   -14.01085    3.24486    3.44948
      H1   -13.44395    3.13408    2.69561
       H   -11.67155    1.72237    5.01898
       O   -12.09953    1.11464    4.40358
      H1   -12.39901    0.41556    4.97326
       H   -10.62574    3.79422    5.36864
       O   -11.17084    3.27264    5.95556
      H1   -10.65646    3.12160    6.76342
       H    -9.32550    0.12769    4.48050
       O    -9.41581   -0.64359    5.05052
      H1    -9.06928   -0.40180    5.92380
       H   -13.11893    0.25042   -2.46431
       O   -13.80534    0.51114   -1.83545
      H1   -13.78053    1.46741   -1.82425
       H   -14.90022    0.68383    2.92841
       O   -14.18309    0.12509    2.60389
      H1   -13.38072    0.62996    2.79429
       H   -14.10419   -0.65404    1.14915
       O   -14.01494   -1.26980    0.42481
      H1   -14.00307   -0.69340   -0.35734
       H   -12.78553   -2.32817    1.01063
       O   -11.94066   -2.70685    1.25379
      H1   -12.16190   -3.54084    1.66752
       H   -10.00931    4.24096    1.53705
       O    -9.06824    4.15952    1.41732
      H1    -8.72604    4.55390    2.23146
       H    -9.09981    2.35083    2.80902
       O    -8.69969    1.49711    3.06281
      H1    -7.99201    1.36405    2.43118
       H   -15.53046    3.06255    1.23487
       O   -15.64045    2.79458    0.31470
      H1   -16.41567    2.18571    0.38834
       H   -11.07655    1.32918    2.23938
       O   -11.70846    1.52866    1.53248
      H1   -11.59217    0.79338    0.93883
       H   -10.12260   -0.16124    0.24449
       O   -10.21576   -0.58096    1.11263
      H1   -10.81912   -1.30061    0.98664
       H   -12.08581    3.36846    1.42050
       O   -11.94230    4.31978    1.63899
      H1   -12.19643    4.76664    0.81677
       H   -13.02905   -1.35196    4.68440
       O   -13.65782   -0.93688    5.27997
      H1   -14.19325   -0.37870    4.71800
       H   -10.32952    2.08979   -1.12984
       O   -10.17935    1.14064   -1.17358
      H1   -10.81914    0.83833   -1.80533

