60
frame 2 | Written by MDAnalysis XYZWriter (release 2.4.3)
       H     7.40670    7.92874    3.64678
       O     8.06191    7.67134    2.98842
      H1     7.56813    7.18792    2.32864
       H     6.25304   10.63472   -2.29128
       O     7.20059   10.45126   -2.25281
      H1     7.36079   10.27673   -1.31880
       H    12.58052    6.97060   -0.01279
       O    13.47921    6.73544   -0.30966
      H1    13.47142    5.76241   -0.37043
       H     8.78353    3.62713    0.04441
       O     8.44973    2.77025    0.33901
      H1     9.26516    2.29377    0.54315
       H     7.25976    8.87963   -4.06320
       O     7.67487    8.02383   -3.92921
      H1     8.53116    8.24918   -3.55586
       H     7.51369    7.93024   -0.76659
       O     7.22467    7.20093   -1.40279
      H1     7.27413    7.68219   -2.25406
       H     7.76434    3.18102   -3.04904
       O     7.83698    4.03628   -3.51166
      H1     7.20422    3.96578   -4.23923
       H     4.17781    5.67726   -1.59592
       O     4.31926    6.48313   -1.05561
      H1     5.13480    6.86176   -1.42558
       H    11.09637    6.36298   -4.74428
       O    11.73302    6.57915   -4.05512
      H1    11.18443    7.18234   -3.50732
       H    11.16997    5.40679    1.67426
       O    10.93540    6.15354    1.07547
      H1    10.99895    6.93639    1.65284
       H     8.83299    8.45167    1.10704
       O     8.87765    8.66931    0.18905
      H1     9.31861    9.53048    0.15207
       H     5.71812    4.14439   -2.71504
       O     4.74874    4.16545   -2.88132
      H1     4.44568    3.35028   -2.46041
       H     8.58380    6.14343   -0.96805
       O     9.20635    5.40498   -0.83638
      H1     9.73816    5.67103   -0.09500
       H    14.06083    3.87678   -1.02836
       O    13.30909    4.17441   -0.51557
      H1    12.61047    4.28437   -1.20397
       H    10.50417    4.95637   -1.96903
       O    11.20017    4.54576   -2.48246
      H1    11.55957    5.23979   -3.05085
       H     8.56401    6.67200   -4.93626
       O     9.19976    6.00211   -4.95366
      H1     8.91671    5.39957   -4.23948
       H     6.19515    5.45721    0.56540
       O     6.61820    5.82144    1.31539
      H1     6.88442    5.02742    1.78389
       H    10.64650    9.12034   -2.16051
       O    10.18010    8.30958   -2.40561
      H1     9.90247    7.97142   -1.54790
       H     8.08046    3.26580    2.18071
       O     7.94038    3.66501    3.01985
      H1     8.28490    2.99909    3.63772
       H     7.64599    2.14569   -1.15563
       O     7.56807    1.60551   -1.94595
      H1     8.33872    1.05379   -1.96983

