60
frame 3 | Written by MDAnalysis XYZWriter (release 2.4.3)
       H     4.02481    2.63291  -14.05381
       O     3.91101    2.70775  -13.11133
      H1     4.65842    3.25739  -12.83048
       H    -0.26148    6.78536  -12.44439
       O    -0.82417    6.28833  -11.81796
      H1    -1.57567    6.04085  -12.33519
       H    -2.06794    4.02301  -18.03844
       O    -1.89607    3.84795  -17.09822
      H1    -1.10464    3.29004  -17.13096
       H     0.76793    3.25656  -17.06385
       O     0.39902    2.41592  -17.38754
      H1     0.49376    1.82733  -16.63294
       H     1.88734    4.71185  -16.43133
       O     1.03385    4.88904  -16.82525
      H1     0.61696    5.50993  -16.21353
       H    -1.43554   -0.69628  -15.65459
       O    -0.73902   -0.18088  -15.20480
      H1     0.04941   -0.41814  -15.72894
       H     3.18137    2.32572  -11.55919
       O     3.14788    2.10244  -10.60528
      H1     2.40821    1.50757  -10.54068
       H    -0.76468   -1.01032  -12.20205
       O    -0.72251   -1.73228  -12.83164
      H1    -0.47721   -1.24728  -13.62773
       H     0.05902    1.87756  -14.11964
       O     0.83859    2.05361  -14.64905
      H1     1.15331    2.84172  -14.22861
       H     4.10308    5.90537  -17.49830
       O     3.91316    4.95760  -17.60512
      H1     4.40242    4.50919  -16.93006
       H     5.24695    2.27817  -16.39598
       O     4.40965    2.60866  -16.06822
      H1     3.77425    1.95251  -16.41302
       H     2.92047   -0.44929  -15.27456
       O     2.44623   -0.09621  -14.50820
      H1     1.79055    0.52699  -14.83778
       H    -3.28183    1.59708  -10.59375
       O    -2.46099    2.14354  -10.52038
      H1    -2.15626    2.13151  -11.44801
       H    -1.44422    3.10859  -13.22527
       O    -1.39894    2.17011  -12.96835
      H1    -1.87948    1.66840  -13.63808
       H     2.46839    5.86555  -10.99392
       O     3.04410    6.64014  -11.00417
      H1     2.53122    7.34991  -11.42595
       H     2.46708    4.28968  -13.25474
       O     1.60623    4.60674  -13.42209
      H1     1.18372    4.49159  -12.56244
       H     1.58949    4.50216   -9.68713
       O     1.18702    4.62380  -10.56055
      H1     0.36722    5.11583  -10.42380
       H    -3.16339    4.13282  -13.68394
       O    -2.36112    4.69474  -13.56917
      H1    -2.25649    5.07087  -14.44431
       H     4.81656    7.19416  -13.67320
       O     4.04363    6.65517  -13.88946
      H1     3.42001    6.67265  -13.16441
       H     5.08850    0.10130  -12.67756
       O     4.93729   -0.37082  -13.52140
      H1     4.08701    0.04915  -13.83348

