60
frame 0 | Written by MDAnalysis XYZWriter (release 2.4.3)
       H    16.36602    0.06482   -4.85557
       O    15.97262    0.93409   -4.70413
      H1    15.40008    0.76515   -3.92913
       H    14.68307   -2.55877   -4.20127
       O    15.10455   -2.87028   -3.39121
      H1    15.03414   -3.84317   -3.46472
       H    17.33803   -5.08776   -5.07257
       O    17.50380   -4.15234   -4.99713
      H1    18.28431   -4.14741   -4.43146
       H    11.08371    0.59952   -7.00145
       O    10.88632    1.48112   -6.64174
      H1    11.62866    1.69834   -6.09289
       H    14.94729   -2.12668  -11.15822
       O    15.66745   -2.65561  -10.78933
      H1    16.45191   -2.10033  -10.88812
       H    12.03480    0.16165   -4.21529
       O    12.44516    0.71520   -3.56874
      H1    11.67621    1.14219   -3.16363
       H    14.42447    0.78973   -5.85331
       O    13.81221    1.31461   -6.40776
      H1    13.68469    0.65946   -7.10993
       H    16.91076   -5.02656   -8.93176
       O    15.96752   -4.88288   -9.13984
      H1    15.90428   -4.15997   -9.79092
       H    18.37750   -1.43968   -8.13834
       O    17.66133   -1.85054   -7.62821
      H1    17.96422   -1.70170   -6.71925
       H    11.01636   -2.54682   -4.41153
       O    11.32695   -1.94954   -5.12262
      H1    12.16956   -2.33938   -5.35984
       H    12.07015   -0.98037   -8.50277
       O    12.23544   -0.68765   -7.59142
      H1    12.20811   -1.52440   -7.13885
       H    12.47244   -1.94312  -11.62225
       O    13.18874   -1.30737  -11.45635
      H1    12.69384   -0.52661  -11.16044
       H    13.77406   -3.71607   -6.36804
       O    13.84476   -2.78396   -6.07582
      H1    14.27311   -2.32524   -6.82583
       H    15.39235   -6.22392   -4.36892
       O    14.67114   -5.92615   -3.80485
      H1    14.90161   -6.26085   -2.93180
       H    15.11605   -1.93069   -9.25470
       O    15.06326   -1.27389   -8.51422
      H1    15.88122   -1.44325   -7.98479
       H    10.55521   -5.65063   -7.81268
       O    10.86843   -4.79298   -7.54075
      H1    11.74647   -5.03302   -7.22916
       H    13.63219    1.32324   -9.40561
       O    14.53332    1.01825   -9.63209
      H1    14.66957    0.21678   -9.07157
       H    17.02863   -2.36921   -4.72171
       O    17.28481   -1.46830   -5.03055
      H1    18.18730   -1.39883   -4.65699
       H     9.99591   -1.93723   -8.58866
       O    10.71275   -2.43607   -8.97539
      H1    10.73172   -3.21272   -8.42313
       H    14.46036   -5.07785   -7.85671
       O    13.77328   -5.25016   -7.19185
      H1    13.87829   -6.17223   -6.95320

