60
frame 2 | Written by MDAnalysis XYZWriter (release 2.4.3)
       H    -2.39568   -9.12663  -16.86491
       O    -1.63197   -8.79667  -16.34543
      H1    -1.05726   -9.56749  -16.30722
       H    -1.39770   -5.91191   -9.64335
       O    -1.72360   -6.80869   -9.72234
      H1    -1.34649   -7.17313  -10.54958
       H    -2.75636   -8.45936  -14.80188
       O    -3.58603   -7.95346  -14.65826
      H1    -3.52479   -7.79961  -13.69981
       H    -1.97325  -10.00227  -13.58859
       O    -1.58424  -10.76789  -14.02529
      H1    -0.66748  -10.46931  -14.10635
       H    -4.27908   -4.97846  -11.23546
       O    -4.03015   -5.07159  -10.34146
      H1    -3.35768   -5.76007  -10.30452
       H    -7.20707   -7.17117  -12.47768
       O    -7.35435   -7.16646  -11.51637
      H1    -8.03893   -7.81712  -11.34010
       H    -0.85364   -5.12739  -13.33534
       O    -1.43862   -5.77566  -13.70008
      H1    -0.89130   -6.55785  -13.65342
       H     1.18878  -10.35015  -13.06372
       O     0.74858   -9.62785  -13.51467
      H1     0.20259   -9.16111  -12.88649
       H    -7.20684   -9.28116  -13.17177
       O    -6.57505   -9.85770  -12.72534
      H1    -6.09333  -10.28444  -13.43666
       H    -0.16746   -9.07548  -11.06714
       O    -0.35878   -8.27176  -11.56787
      H1     0.43278   -7.71563  -11.45207
       H    -4.15614  -10.08228  -17.85989
       O    -4.56790   -9.51799  -17.18466
      H1    -5.23498   -9.00508  -17.71898
       H    -3.17346   -5.11752  -13.60693
       O    -3.84556   -4.61693  -13.09852
      H1    -4.65519   -4.78073  -13.58428
       H    -0.77505   -5.14122  -15.52588
       O    -0.94222   -4.72749  -16.36496
      H1    -0.40820   -5.20010  -16.99676
       H    -4.30071  -11.98360  -14.76758
       O    -5.07805  -11.36136  -14.73345
      H1    -4.77116  -10.57083  -15.25741
       H    -7.13169   -7.45148  -15.07371
       O    -7.55145   -7.72447  -14.25007
      H1    -8.50919   -7.47221  -14.37573
       H    -3.45940   -6.99727  -16.18740
       O    -3.38539   -6.17163  -16.69176
      H1    -2.67145   -5.69439  -16.19961
       H    -3.70336  -11.97002  -11.81054
       O    -3.30117  -11.44372  -11.11193
      H1    -3.33819  -10.52119  -11.47055
       H    -4.81015   -9.06728  -12.53945
       O    -3.94532   -8.78668  -12.19050
      H1    -4.19436   -8.32039  -11.39495
       H    -6.07103   -8.02961  -10.55126
       O    -5.50509   -8.39901   -9.83866
      H1    -5.44177   -7.62796   -9.26596
       H    -5.96000   -4.89925  -17.20699
       O    -5.87413   -4.86635  -16.26241
      H1    -5.13776   -5.49074  -16.08045

