60
frame 2 | Written by MDAnalysis XYZWriter (release 2.4.3)
       H     2.10962  -10.19724    4.15236
       O     2.08207   -9.74464    3.28106
      H1     2.56164  -10.33940    2.69546
       H     2.95557  -12.84379    1.96269
       O     3.12274  -11.99246    1.56335
      H1     4.04609  -11.83819    1.76099
       H     1.05842  -10.75065    0.61545
       O     0.31226  -11.31312    0.45792
      H1    -0.29898  -10.66649    0.12976
       H     6.52586   -6.96743   -2.24188
       O     5.60384   -7.09574   -2.11499
      H1     5.57541   -7.42397   -1.21903
       H     0.63276  -13.60173   -1.03481
       O    -0.22749  -13.92702   -0.72565
      H1    -0.65495  -13.09217   -0.50533
       H     3.50807  -13.88396   -5.06297
       O     2.60845  -13.77563   -4.71826
      H1     2.69452  -13.44247   -3.81553
       H     8.43145  -10.54930   -0.53220
       O     8.96938   -9.99395   -1.09583
      H1     8.41090   -9.22370   -1.29187
       H     7.20864  -11.84223   -3.09899
       O     6.58510  -12.23847   -2.48415
      H1     5.88724  -11.55887   -2.44224
       H     5.60783  -13.35404    2.52713
       O     5.61702  -13.54281    3.47889
      H1     5.45239  -12.70990    3.88957
       H     6.69507  -13.47376    0.35409
       O     6.26341  -14.08170    0.96974
      H1     5.70632  -14.70290    0.41418
       H     0.90209  -13.51744    1.21734
       O     0.66865  -14.04974    1.99251
      H1     0.01972  -13.49645    2.44231
       H     0.65142  -10.29896   -2.38838
       O     1.59922  -10.41708   -2.17379
      H1     2.03552   -9.93584   -2.84491
       H     3.89360  -10.58268   -0.45895
       O     4.34553  -10.94345   -1.24927
      H1     4.16530  -10.26735   -1.92225
       H     4.16916   -8.26878   -2.98806
       O     4.11215   -9.01481   -3.58586
      H1     3.69625   -8.67413   -4.35704
       H     1.47820   -8.06048   -0.22879
       O     1.85398   -8.95237   -0.10448
      H1     1.59328   -9.38364   -0.92721
       H     3.77335  -15.67067    0.54215
       O     3.84914  -15.20925   -0.30281
      H1     4.03828  -15.91929   -0.96586
       H     2.37156  -12.48613   -1.70513
       O     2.21338  -13.45735   -1.81984
      H1     2.80467  -13.89577   -1.20369
       H     4.55794   -7.43529    0.31455
       O     4.46032   -8.39501    0.21090
      H1     3.50977   -8.61420    0.33627
       H     5.61172  -10.65187    2.81023
       O     5.55854  -10.73755    1.85435
      H1     5.52424   -9.79871    1.58197
       H     7.49033  -11.91797   -0.75406
       O     7.62435  -11.91016    0.20289
      H1     6.79455  -11.47485    0.52401

