60
frame 3 | Written by MDAnalysis XYZWriter (release 2.4.3)
       H    -1.08958    0.70896    4.87182
       O    -1.30125    0.06815    4.20814
      H1    -1.82245   -0.58043    4.73990
       H    -2.81165   -0.28012    7.35767
       O    -3.18515    0.31483    6.69230
      H1    -3.45270   -0.24817    5.98706
       H    -1.42824    4.14031    2.44864
       O    -0.99342    4.20336    3.30490
      H1    -1.62718    4.60247    3.91592
       H    -6.34549   -0.60324    2.22797
       O    -5.49861   -1.08100    2.43026
      H1    -5.65285   -1.47567    3.29716
       H    -4.55912    2.37123    2.65672
       O    -5.02662    3.09301    2.20639
      H1    -5.04779    2.87782    1.27646
       H    -1.31797    2.47488   -1.51459
       O    -1.94641    3.22427   -1.46268
      H1    -2.21091    3.30178   -0.53513
       H    -3.53486   -1.21353   -1.29643
       O    -3.43532   -2.12627   -1.65966
      H1    -4.06235   -2.56716   -1.08556
       H    -1.06591    2.45940    6.18549
       O    -1.99017    2.51136    5.97500
      H1    -2.29465    1.71924    6.42322
       H    -0.22759    0.66246    2.04491
       O    -0.25424    1.55692    1.72003
      H1    -0.71363    2.03971    2.40128
       H    -6.65442   -2.65126   -0.14190
       O    -5.78443   -2.26604   -0.14332
      H1    -5.63785   -2.09605    0.79428
       H    -2.76005    4.54391    0.99305
       O    -2.44865    3.62702    1.14094
      H1    -3.22143    3.20205    1.49862
       H    -2.52640   -0.02868    0.67886
       O    -2.98941    0.20151   -0.13204
      H1    -3.39115    1.06925    0.04356
       H    -0.62221   -2.61572    1.49743
       O    -0.80285   -2.15443    0.67893
      H1    -0.88056   -2.88327    0.01264
       H    -6.96023    2.61837    2.24659
       O    -7.77753    2.09054    2.22834
      H1    -8.04286    2.07608    1.31512
       H    -4.95066    2.92171   -1.21420
       O    -4.93062    2.36638   -0.38992
      H1    -5.49325    1.61345   -0.60420
       H    -2.74683    0.42821    3.13740
       O    -3.49507    0.82943    2.66545
      H1    -4.13315    0.09172    2.63922
       H    -4.56290    5.06417    5.00570
       O    -5.31237    4.91113    4.43623
      H1    -4.92579    4.63106    3.62842
       H    -2.74211   -2.82436    3.37326
       O    -2.71605   -3.11123    2.46818
      H1    -2.35114   -2.32996    2.01730
       H    -4.02428   -2.95827    5.24734
       O    -3.38800   -2.27845    4.99180
      H1    -2.52665   -2.67486    5.24007
       H    -1.54287    0.70840   -0.88761
       O    -0.83056    0.85051   -1.53105
      H1    -1.06465    0.26172   -2.28095

