60
frame 3 | Written by MDAnalysis XYZWriter (release 2.4.3)
       H    -6.43728    9.23033   14.26689
       O    -6.10869    9.62757   13.45163
      H1    -5.14719    9.53643   13.52810
       H     3.17834    8.53410   11.24100
       O     2.94894    9.18853   10.59541
      H1     1.98068    9.17486   10.57546
       H    -0.84440   11.86626   10.73610
       O    -0.05398   12.36427   10.92795
      H1     0.39301   12.32484   10.07066
       H    -1.57567   10.98728    8.92632
       O    -1.56029   10.10061    9.29555
      H1    -2.51585    9.83702    9.25562
       H     4.17848    8.03639   13.12431
       O     4.25342    7.53185   12.30224
      H1     3.54239    6.89455   12.33204
       H     0.47343    7.02622    6.65289
       O     0.63856    7.06644    7.59210
      H1     1.61212    7.17300    7.63052
       H     2.23673    4.62775   12.81548
       O     2.74672    4.78377   12.01145
      H1     2.16254    4.47255   11.32636
       H     2.51282    5.84900   14.77662
       O     1.64618    6.29237   14.68885
      H1     1.85926    7.19908   14.43461
       H    -0.69868    8.09414   12.13788
       O    -1.31558    7.45140   12.51274
      H1    -2.04400    7.96576   12.87611
       H     1.84402    9.46316   14.10022
       O     2.44351    8.90101   14.58087
      H1     2.45822    9.26325   15.46399
       H    -1.08441    7.20053    9.34089
       O    -1.91572    6.89995    9.69145
      H1    -1.78581    6.89847   10.64413
       H    -4.00812    7.92626   10.50932
       O    -4.26389    7.77250   11.43280
      H1    -5.24697    7.75290   11.38669
       H     1.23441   11.83708   12.36604
       O     1.23030   11.46052   13.27172
      H1     0.36560   11.75389   13.65795
       H    -3.05299    6.76292   16.10354
       O    -2.45049    7.24209   15.54569
      H1    -1.98233    6.54510   15.05783
       H    -1.44893    5.70634   13.37263
       O    -1.86222    5.06556   13.96562
      H1    -2.74005    4.86253   13.59779
       H    -3.28881    8.39011   14.31017
       O    -3.44967    9.09738   13.64615
      H1    -3.84862    8.66809   12.89438
       H    -4.78783    9.13323    8.28051
       O    -4.06305    8.84256    8.87007
      H1    -3.68186    8.07977    8.40224
       H    -2.77775    5.21710   10.01448
       O    -2.70043    4.25818   10.11094
      H1    -3.38718    4.09456   10.75417
       H    -2.33028   11.31629   14.47524
       O    -1.46581   11.70594   14.75986
      H1    -1.42833   12.52984   14.24194
       H    -0.37787    9.51993   10.35753
       O     0.29465    9.20963   10.99008
      H1     0.48687   10.00303   11.52744

