60
frame 2 | Written by MDAnalysis XYZWriter (release 2.4.3)
       H     2.15433    5.33652   -6.18171
       O     2.00029    5.23760   -7.09478
      H1     2.36435    6.06033   -7.46248
       H     6.14702    3.42763   -8.45664
       O     5.58205    3.77172   -9.15889
      H1     4.71354    3.37700   -8.95384
       H     6.85244    2.70238  -10.48102
       O     7.31212    2.05949  -11.02504
      H1     8.23946    2.34315  -10.91295
       H     8.07047    1.75430   -8.07775
       O     7.62650    2.53082   -7.66246
      H1     8.34353    3.14471   -7.46228
       H     5.63936    1.06238   -4.14993
       O     6.20459    0.33874   -3.80618
      H1     6.59280    0.77830   -3.04240
       H     4.24271   -1.10483  -11.07126
       O     3.39175   -1.49893  -11.35221
      H1     3.34026   -1.33442  -12.31598
       H     5.25273    1.18566   -6.75482
       O     4.91242    1.65480   -5.97600
      H1     5.26573    2.53810   -6.05894
       H     1.42227    2.41562   -4.95122
       O     0.52157    2.74021   -4.86357
      H1     0.29389    2.94100   -5.78486
       H     5.02328    0.32728  -12.37364
       O     5.79791   -0.04065  -11.91176
      H1     6.20848    0.71579  -11.51458
       H     3.49999    2.15330   -8.02068
       O     3.19826    2.81441   -8.66200
      H1     3.07489    2.29621   -9.44499
       H     5.55165    4.84985   -6.06372
       O     5.80523    4.23644   -5.35665
      H1     5.14797    4.43682   -4.66738
       H    -0.63308    2.82788   -8.28718
       O     0.03001    3.16262   -7.67434
      H1     0.81491    3.21583   -8.20862
       H     3.39710    1.32393  -11.82974
       O     3.05407    1.35344  -10.92033
      H1     2.45618    0.59895  -10.81144
       H     6.65903    0.73330   -7.55169
       O     6.07933    0.23698   -8.13827
      H1     6.11867   -0.64534   -7.79207
       H     0.68629   -0.79578   -9.48889
       O     1.63806   -0.73687   -9.44936
      H1     1.98567   -1.12445  -10.24491
       H     2.23431   -0.98468   -7.87404
       O     2.50346   -0.88694   -6.94562
      H1     2.28165    0.02751   -6.73587
       H     2.79610    5.03616  -10.73220
       O     3.26500    5.84817  -10.86079
      H1     2.66838    6.41525  -11.35329
       H     1.50583    4.33315   -9.43727
       O     1.35270    4.04441  -10.36097
      H1     0.99561    4.83679  -10.81972
       H     6.42433    5.97315   -7.54273
       O     5.50977    5.77457   -7.46661
      H1     5.31733    5.20738   -8.22142
       H     2.71800    0.51038   -4.01975
       O     2.91194    1.43705   -4.28069
      H1     3.75112    1.39873   -4.81911

