60
frame 2 | Written by MDAnalysis XYZWriter (release 2.4.3)
       H    -2.04487  -15.76438   -8.25230
       O    -1.83247  -16.69654   -8.51322
      H1    -2.59377  -16.90737   -9.04899
       H     1.10388  -13.31322   -9.77049
       O     0.83149  -12.64596   -9.16667
      H1     0.41332  -12.01270   -9.72613
       H     3.11100  -10.72986   -6.86848
       O     2.37369  -10.26375   -7.28990
      H1     2.73139   -9.83831   -8.08344
       H    -0.25869  -16.85826  -10.41108
       O    -0.60148  -17.38872  -11.14498
      H1    -1.25473  -17.96094  -10.71940
       H    -1.04880  -11.84623  -12.62693
       O    -0.67639  -12.61845  -12.17737
      H1    -1.44950  -13.08129  -11.83679
       H    -2.04429  -14.08815  -10.07645
       O    -2.22027  -14.36552  -10.97962
      H1    -1.76124  -15.20322  -11.02098
       H     3.82453  -10.85999  -10.23714
       O     3.29224  -11.66696  -10.08764
      H1     2.53732  -11.31652   -9.65182
       H     4.20869  -12.85253  -12.41835
       O     4.70971  -13.39744  -11.78942
      H1     4.52708  -13.03413  -10.92646
       H     2.14566  -16.83207   -5.21632
       O     1.57188  -16.98537   -5.98246
      H1     1.61420  -16.13627   -6.44553
       H     1.21444  -13.18589   -6.03488
       O     0.47938  -12.86389   -6.50988
      H1     0.84021  -12.65694   -7.38215
       H    -0.16746   -9.07548  -11.06714
       O    -0.35878   -8.27176  -11.56787
      H1     0.43278   -7.71563  -11.45207
       H    -1.07112  -11.27666  -10.82815
       O    -0.53240  -10.71052  -10.24308
      H1    -1.00579  -10.64099   -9.40984
       H     0.98800  -14.91092  -11.51688
       O     1.76406  -14.69510  -10.98110
      H1     2.49267  -14.81594  -11.63162
       H    -1.52443  -12.03212   -7.44234
       O    -1.87536  -11.12209   -7.57439
      H1    -2.44083  -10.98359   -6.82427
       H     0.57171  -14.71337   -8.17850
       O     1.35540  -15.27425   -8.08157
      H1     1.42808  -15.68677   -8.96522
       H     3.93078  -13.03245   -7.06667
       O     4.08609  -13.93930   -7.36516
      H1     3.20944  -14.23170   -7.69262
       H     2.46094  -12.23955  -11.77492
       O     1.86157  -12.10166  -12.50715
      H1     1.01471  -12.37785  -12.11003
       H    -0.86233  -12.33246   -5.37743
       O    -1.38729  -12.32406   -4.57601
      H1    -0.76056  -12.82500   -4.00790
       H    -1.14987   -8.12900   -8.61867
       O    -0.57808   -8.72402   -8.11399
      H1    -1.12039   -9.45429   -7.72431
       H    -2.87990  -14.15376   -7.06735
       O    -1.97241  -14.09231   -7.33617
      H1    -1.45844  -14.49833   -6.60835

