60
frame 3 | Written by MDAnalysis XYZWriter (release 2.4.3)
       H     2.54489  -14.80454   10.78955
       O     2.04117  -15.60563   10.69189
      H1     1.65957  -15.57472    9.80727
       H     5.78762  -16.25498    6.73970
       O     5.53365  -15.77707    5.92935
      H1     6.11420  -16.10022    5.21243
       H     4.26618  -17.82107    7.80794
       O     5.03993  -17.34208    8.12305
      H1     4.86619  -17.35503    9.07850
       H     9.31170  -14.51931   11.80019
       O     9.83111  -15.35361   11.78593
      H1     9.49750  -15.83522   12.53653
       H     3.21144  -17.11349   10.70305
       O     3.48016  -18.02318   10.69726
      H1     2.96924  -18.37963    9.96050
       H     8.64617  -16.21635   10.42066
       O     7.86316  -16.36801    9.87635
      H1     8.15010  -16.00682    9.01816
       H     2.85017  -18.25383   13.72390
       O     3.64763  -18.34611   14.24317
      H1     3.89656  -17.41183   14.41497
       H     6.09817  -14.87300   14.49154
       O     6.74271  -14.90617   13.80225
      H1     6.43112  -15.66455   13.27419
       H     9.90035  -18.04891   13.54195
       O     9.11905  -17.65163   13.10341
      H1     9.02753  -18.28270   12.37244
       H     9.01277  -12.30476    9.83694
       O     8.63976  -13.02803   10.35293
      H1     7.78001  -12.74166   10.69444
       H     5.39952  -17.00099   11.78103
       O     5.57809  -16.07478   11.54158
      H1     6.31989  -16.15191   10.94456
       H     8.74906  -14.19258    7.41425
       O     9.26666  -14.55079    8.14858
      H1     9.00132  -14.11081    8.97717
       H     3.56792  -15.66147   14.91877
       O     4.43351  -15.67662   15.33741
      H1     4.19423  -15.57415   16.26587
       H     3.78486  -12.87279   10.90228
       O     3.86773  -13.51566   11.61757
      H1     4.48941  -14.15005   11.26088
       H     6.74457  -13.26714   12.47450
       O     6.40013  -12.63845   11.82243
      H1     5.43314  -12.64191   11.91940
       H     1.50252  -17.13425   12.74035
       O     1.45498  -18.10019   12.66532
      H1     2.11911  -18.32345   12.01393
       H     8.34409  -14.98194   14.60452
       O     9.23547  -14.85889   14.96954
      H1     9.15520  -15.13607   15.89522
       H     1.64256  -15.15268   14.42633
       O     2.09684  -15.62204   13.68127
      H1     2.17435  -14.92506   12.99305
       H     6.02617  -16.38449   15.52142
       O     6.64520  -16.94110   16.03027
      H1     7.05486  -17.57179   15.42385
       H     6.84403  -18.74922    6.27672
       O     7.25211  -18.23377    7.00420
      H1     6.51522  -18.04442    7.57950

