60
frame 3 | Written by MDAnalysis XYZWriter (release 2.4.3)
       H   -11.07749   -8.24548   -9.28973
       O   -11.24319   -9.22467   -9.30790
      H1   -10.62059   -9.50340   -9.96784
       H   -10.04131   -5.09889  -14.73446
       O    -9.35217   -5.69112  -14.33456
      H1    -8.55095   -5.18254  -14.41528
       H   -17.67031   -6.83191  -15.07377
       O   -17.08085   -6.92282  -14.30243
      H1   -17.65618   -7.31003  -13.63468
       H   -11.54586  -11.10689  -13.31119
       O   -11.93245  -10.31572  -12.89421
      H1   -11.20495   -9.65738  -12.89806
       H   -15.54964   -9.16651  -10.58195
       O   -16.39181   -9.65165  -10.50339
      H1   -16.15434  -10.52487  -10.71462
       H   -15.97819   -5.15829   -9.08882
       O   -16.62260   -4.67385   -9.64074
      H1   -16.39021   -4.90371  -10.54449
       H   -17.37341   -5.07753  -14.29467
       O   -17.78499   -4.21945  -14.15042
      H1   -18.63860   -4.27104  -14.55520
       H   -14.24752   -4.01662  -12.18901
       O   -14.61015   -3.27293  -11.65823
      H1   -14.78262   -2.60058  -12.34591
       H   -13.14216   -1.90812  -13.72908
       O   -14.00338   -1.47641  -13.67198
      H1   -13.95933   -0.94015  -14.45885
       H   -14.48482   -7.24849   -9.22975
       O   -14.65929   -7.56293  -10.12746
      H1   -14.31669   -6.84719  -10.68029
       H   -14.12869   -4.71827   -8.51880
       O   -14.42811   -5.55640   -8.16170
      H1   -14.07047   -5.67740   -7.27210
       H   -10.77150   -3.69293  -11.13243
       O   -10.91662   -4.56189  -11.59775
      H1   -10.00320   -4.94044  -11.67258
       H   -15.12729   -7.43275  -14.09669
       O   -14.18106   -7.41456  -14.26974
      H1   -13.97196   -8.34364  -14.38029
       H    -9.58410   -7.46666  -13.83952
       O    -9.73749   -8.27763  -13.39786
      H1    -9.19506   -8.89890  -13.92759
       H   -10.79548   -6.20229   -8.27719
       O   -10.76255   -6.46559   -9.20568
      H1   -11.60031   -6.18893   -9.60982
       H   -13.14980   -5.49507  -16.64078
       O   -13.94411   -6.02044  -16.80598
      H1   -14.09007   -6.45248  -15.94903
       H   -12.50541   -5.56054  -11.83262
       O   -13.43561   -5.78890  -11.96078
      H1   -13.49996   -6.26685  -12.79521
       H   -10.85122   -2.62470  -14.24027
       O   -11.71093   -3.00705  -13.99809
      H1   -11.60030   -3.67300  -13.28604
       H   -14.94070  -10.73492  -14.46723
       O   -14.30826  -10.01566  -14.33648
      H1   -13.46396  -10.47575  -14.18945
       H   -10.76324   -4.36452  -16.81510
       O   -11.37747   -4.69035  -16.11543
      H1   -11.47459   -3.89679  -15.54968

