60
frame 2 | Written by MDAnalysis XYZWriter (release 2.4.3)
       H    10.14792    6.66437   10.83178
       O     9.54544    6.25851   10.20007
      H1    10.01317    5.42771   10.07057
       H     8.57381    3.61348   12.11577
       O     9.34914    3.07219   11.84608
      H1     8.91932    2.52184   11.15993
       H     8.68166    6.40385    4.30432
       O     9.08144    6.17097    5.16106
      H1     9.02042    5.21076    5.12946
       H    12.06339    5.64420    9.74538
       O    12.19654    5.90412    8.83039
      H1    11.47960    6.50560    8.66472
       H     5.47339    6.14182    9.28605
       O     4.73543    6.79363    9.12430
      H1     4.37668    6.92060   10.03623
       H     4.23102    3.18732   12.02516
       O     4.89087    2.49485   11.74591
      H1     4.86779    1.94150   12.51875
       H     7.55957    0.50816   11.20723
       O     7.82426    1.13055   10.51736
      H1     6.97934    1.49150   10.21772
       H    10.69520    1.23453   10.10765
       O    11.18568    1.54951    9.33782
      H1    10.84110    0.96590    8.61397
       H     6.60477    4.97535   11.44485
       O     6.74112    4.18677   11.98100
      H1     6.11505    3.52933   11.68828
       H     9.85141    7.30744    7.23315
       O    10.19360    7.89174    7.92692
      H1     9.59485    7.79655    8.68246
       H     4.34650    3.31347    5.92464
       O     3.84805    2.65296    6.44046
      H1     3.25439    3.20297    6.98959
       H     5.23976    1.89206    9.95935
       O     5.38625    1.57776    9.05194
      H1     4.80566    2.15365    8.52918
       H     6.12483    6.65473   11.56826
       O     6.97258    6.99101   11.89559
      H1     7.37189    7.31204   11.09050
       H     8.07909    0.72225    7.32951
       O     8.75659    1.36721    7.59843
      H1     8.53251    1.56046    8.51493
       H     7.84534    5.73438    9.29532
       O     7.07575    5.17438    9.10922
      H1     7.41224    4.46121    8.54071
       H    12.33085    4.17220   11.02787
       O    11.49201    4.65116   11.22446
      H1    10.88901    3.91848   11.47692
       H    10.88031    3.79689    5.89862
       O    10.23620    3.23213    5.53581
      H1     9.85109    2.76945    6.32215
       H     8.82699    8.99952   10.21177
       O     8.09939    8.57146    9.77434
      H1     7.37436    9.19987    9.72134
       H     6.49104    4.21231    3.95066
       O     5.69438    4.63518    4.24419
      H1     5.85757    5.60735    4.08465
       H    11.04158    4.66376    8.54705
       O    10.20487    4.16237    8.43191
      H1    10.49691    3.24949    8.62312

