60
frame 2 | Written by MDAnalysis XYZWriter (release 2.4.3)
       H    -7.51928    2.51695   -1.89434
       O    -7.67001    1.73614   -2.42844
      H1    -8.12735    1.10722   -1.87239
       H    -4.91842   -1.12694   -1.66791
       O    -4.19515   -0.90210   -2.27225
      H1    -4.52229   -1.20021   -3.13626
       H    -8.39336   -3.72528    0.20079
       O    -7.91600   -3.75601   -0.63570
      H1    -8.39636   -4.46489   -1.06650
       H   -10.63879    2.91583   -2.94340
       O   -10.86290    3.41024   -2.14633
      H1   -10.38827    4.24070   -2.23790
       H    -7.65243   -0.82381    2.12016
       O    -7.65469   -1.57377    2.76885
      H1    -8.23970   -1.21662    3.42707
       H    -8.58793   -1.96826   -3.82529
       O    -7.63856   -2.09555   -3.74735
      H1    -7.49652   -3.05318   -3.87256
       H    -7.97730    0.45048    0.13244
       O    -7.27487    0.29612    0.78007
      H1    -6.69082   -0.33402    0.35093
       H   -13.43747   -0.98852   -3.33077
       O   -13.35436   -1.94900   -3.36982
      H1   -12.40979   -2.09209   -3.56160
       H    -9.98582    2.86756   -0.64790
       O    -9.82285    2.59532    0.27688
      H1   -10.47058    1.87852    0.38753
       H    -9.04017   -1.31406   -1.38982
       O    -9.06788   -0.36185   -1.49824
      H1    -9.85136   -0.08846   -1.01431
       H   -10.02068   -0.66090   -6.58699
       O   -10.48229   -0.43885   -5.79214
      H1   -10.63647   -1.28298   -5.38483
       H   -10.76939    0.54519   -4.47614
       O   -10.74624    1.04603   -3.63566
      H1   -10.13597    0.56150   -3.08657
       H    -6.70334   -2.40013   -0.50589
       O    -5.97412   -1.85367   -0.20766
      H1    -5.67836   -2.29275    0.60352
       H    -4.23136    0.88380   -1.89400
       O    -4.48682    1.80704   -1.86535
      H1    -5.42486    1.73131   -2.12523
       H    -7.97293    1.40852   -4.64002
       O    -8.30070    1.68957   -5.51777
      H1    -9.02410    1.07965   -5.71103
       H   -10.58897   -3.40221   -4.19575
       O   -10.70401   -2.49517   -3.88586
      H1   -10.82974   -2.61932   -2.93652
       H    -7.20659    3.49097    2.20787
       O    -7.96751    2.90648    2.31332
      H1    -8.20118    2.74694    1.40450
       H   -10.80797   -3.84430   -0.98090
       O   -10.98991   -2.92976   -1.30379
      H1   -11.83703   -2.81697   -0.82626
       H   -13.22946   -1.48465   -1.34287
       O   -13.24778   -1.75257   -0.43458
      H1   -12.71833   -1.07988    0.03477
       H   -12.10697    0.68349    0.50131
       O   -11.31113    0.20465    0.25788
      H1   -11.05052   -0.19354    1.08814

