60
frame 3 | Written by MDAnalysis XYZWriter (release 2.4.3)
       H    14.07533  -16.19235   12.09636
       O    14.14058  -17.05926   11.65764
      H1    15.05097  -17.38695   11.83767
       H     9.31170  -14.51931   11.80019
       O     9.83111  -15.35361   11.78593
      H1     9.49750  -15.83522   12.53653
       H    11.14354  -14.79958    8.67831
       O    11.93274  -15.33969    8.79893
      H1    12.42936  -14.88410    9.50164
       H     8.64617  -16.21635   10.42066
       O     7.86316  -16.36801    9.87635
      H1     8.15010  -16.00682    9.01816
       H     6.09817  -14.87300   14.49154
       O     6.74271  -14.90617   13.80225
      H1     6.43112  -15.66455   13.27419
       H    12.23437  -17.03521   12.99593
       O    11.99740  -17.97757   13.03478
      H1    12.82917  -18.39845   12.73602
       H    11.80878  -11.54680   11.66102
       O    12.19335  -11.69210   10.78337
      H1    11.46582  -11.43860   10.21040
       H     9.90035  -18.04891   13.54195
       O     9.11905  -17.65163   13.10341
      H1     9.02753  -18.28270   12.37244
       H     9.01277  -12.30476    9.83694
       O     8.63976  -13.02803   10.35293
      H1     7.78001  -12.74166   10.69444
       H     5.39952  -17.00099   11.78103
       O     5.57809  -16.07478   11.54158
      H1     6.31989  -16.15191   10.94456
       H    11.53499  -17.19574    8.19476
       O    12.01673  -17.72358    7.54766
      H1    12.07637  -17.13983    6.77898
       H     8.74906  -14.19258    7.41425
       O     9.26666  -14.55079    8.14858
      H1     9.00132  -14.11081    8.97717
       H    11.56206  -16.59362   10.18084
       O    11.41967  -17.53317   10.25372
      H1    11.30239  -17.62370   11.19928
       H    13.90703  -13.29295   15.62488
       O    13.88701  -13.32568   14.64000
      H1    13.05562  -13.78257   14.43890
       H     6.74457  -13.26714   12.47450
       O     6.40013  -12.63845   11.82243
      H1     5.43314  -12.64191   11.91940
       H     8.34409  -14.98194   14.60452
       O     9.23547  -14.85889   14.96954
      H1     9.15520  -15.13607   15.89522
       H     9.86028  -13.33622   15.17914
       O    10.40876  -12.57196   15.36378
      H1    11.17538  -12.93145   15.84747
       H    13.20224  -13.11693   10.87223
       O    13.59652  -13.97386   10.80247
      H1    14.55301  -13.82963   10.90917
       H     6.02617  -16.38449   15.52142
       O     6.64520  -16.94110   16.03027
      H1     7.05486  -17.57179   15.42385
       H    11.26771  -15.00958   12.86065
       O    12.16648  -14.94157   13.17112
      H1    12.58796  -14.28685   12.59135

