60
frame 3 | Written by MDAnalysis XYZWriter (release 2.4.3)
       H     9.90692   -5.45018   14.08080
       O     9.87918   -5.31977   13.11556
      H1    10.28707   -4.44350   13.01824
       H    10.59157   -6.81161   12.51530
       O    11.00349   -7.67678   12.62547
      H1    11.56123   -7.46809   13.40018
       H     6.10390   -1.82845    9.90581
       O     6.44630   -1.45314   10.74076
      H1     5.60737   -1.25299   11.20237
       H     9.78335   -4.50155   10.86715
       O    10.45285   -4.69453   10.20662
      H1    10.63082   -5.62699   10.30618
       H     7.33066   -3.00324   11.50406
       O     8.12990   -3.53521   11.65768
      H1     7.81037   -4.40168   11.83467
       H     5.27309   -7.07415   13.43496
       O     5.17441   -6.41445   12.72334
      H1     5.45900   -5.61855   13.22188
       H     7.26110    0.26060    9.82341
       O     7.72831    0.89933    9.31883
      H1     8.17895    0.40880    8.67052
       H    10.49827    0.27419   12.12931
       O    10.96157   -0.09352   11.36347
      H1    11.91965    0.01421   11.59085
       H    12.05746   -3.51253   12.51799
       O    11.22721   -3.00895   12.60773
      H1    11.21622   -2.27409   12.00491
       H     8.08355   -5.05815    8.10308
       O     8.41037   -5.81290    8.64221
      H1     9.22191   -5.51929    9.04807
       H     4.96601   -3.28300   13.54205
       O     5.66494   -3.89547   13.79499
      H1     6.43242   -3.29944   13.76002
       H     7.52916   -6.13839   10.42748
       O     7.69197   -6.45412   11.31772
      H1     6.89447   -6.26471   11.81521
       H    11.62290   -2.61260    9.28648
       O    12.50522   -2.45614    8.94957
      H1    12.88605   -1.80825    9.54264
       H     5.02548   -5.60937   10.65957
       O     5.27663   -4.83450   10.18325
      H1     5.37572   -5.12563    9.26268
       H     3.60736   -3.95936   10.67428
       O     2.69933   -3.58801   10.71485
      H1     2.51728   -3.46635    9.77494
       H     8.60640   -8.03247   10.95477
       O     8.94251   -8.89442   10.62163
      H1     8.85248   -9.46778   11.39458
       H     8.64512   -1.07630    6.74485
       O     9.32582   -0.68758    7.27406
      H1     9.40714   -1.27151    8.04466
       H     7.03605   -2.76271   16.93556
       O     8.02484   -2.73004   16.87891
      H1     8.21651   -2.83716   15.93527
       H     8.24543   -2.58264   13.27867
       O     7.95469   -2.20599   14.11151
      H1     7.86052   -1.26565   13.93338
       H     9.05552   -1.23822   10.06267
       O     9.41944   -2.00054    9.61711
      H1     8.79219   -2.71492    9.78473

