60
frame 2 | Written by MDAnalysis XYZWriter (release 2.4.3)
       H     1.03456   -8.18072   13.39611
       O     1.35344   -7.37795   13.83485
      H1     2.20745   -7.65504   14.18938
       H    -0.19339   -6.98181   17.71432
       O     0.55847   -7.34232   17.22370
      H1     0.20460   -8.02695   16.63970
       H    -6.02733   -7.47499   11.94875
       O    -6.66036   -6.81179   12.20386
      H1    -7.14597   -6.71089   11.39089
       H    -3.95785  -11.69813   15.64062
       O    -3.23522  -12.30031   15.38504
      H1    -3.51752  -12.59645   14.50180
       H    -1.24128  -11.02178   18.87566
       O    -0.30649  -11.02719   18.52026
      H1    -0.34112  -10.44498   17.72779
       H    -1.99687   -8.96809   11.89581
       O    -2.22234   -9.70273   11.34145
      H1    -1.56443   -9.66375   10.60060
       H    -5.46733   -6.98066   16.18519
       O    -6.23558   -6.71093   16.67592
      H1    -6.33926   -5.79611   16.41226
       H    -0.96625  -12.60134   11.72264
       O    -1.78320  -12.44190   11.31200
      H1    -1.93379  -11.50453   11.51577
       H    -5.18685   -7.52042   17.87999
       O    -4.51134   -8.15121   18.13440
      H1    -3.82133   -7.55116   18.36476
       H    -0.30809   -6.21602   15.89200
       O    -0.74433   -5.46466   15.47582
      H1    -0.10352   -4.99979   14.92563
       H    -4.55570  -11.62409   12.52019
       O    -4.26677  -12.51752   12.34739
      H1    -3.33293  -12.44658   12.10683
       H    -1.54946   -9.54382   15.57635
       O    -0.68435   -9.65325   15.97330
      H1    -0.32209  -10.38523   15.46023
       H    -0.83751   -7.02868   13.73321
       O    -1.46510   -7.36730   13.10734
      H1    -2.01287   -6.64042   12.81390
       H    -0.37932  -12.64256   14.43296
       O    -0.60297  -11.75470   14.17149
      H1    -1.46854  -11.62226   14.64076
       H    -3.71687   -9.32655   13.99355
       O    -2.77652   -9.34398   14.29006
      H1    -2.45157   -8.49380   13.92206
       H    -3.35949   -8.20277   10.10186
       O    -3.28136   -7.21760   10.14178
      H1    -2.34123   -7.01734   10.26424
       H    -5.24437  -11.60509   17.69132
       O    -4.51874  -11.00834   17.92520
      H1    -4.75829  -10.09761   17.75534
       H    -3.75256   -5.46459   14.67744
       O    -3.51479   -5.92405   15.49609
      H1    -2.56183   -5.77338   15.61175
       H     1.98543  -10.33581   13.10820
       O     1.16132  -10.12127   12.64799
      H1     0.51528  -10.59887   13.17629
       H    -5.39411   -9.71580   12.15452
       O    -5.24509   -9.72520   13.12942
      H1    -5.96954  -10.29154   13.46059

