60
frame 2 | Written by MDAnalysis XYZWriter (release 2.4.3)
       H    -4.93295   -1.71594  -17.49081
       O    -5.65270   -2.13555  -16.97743
      H1    -5.36003   -3.04902  -16.93809
       H    -9.95673   -3.69816  -14.79530
       O    -9.16485   -4.25055  -15.03665
      H1    -8.62476   -4.23397  -14.21952
       H    -8.99418    2.21064  -12.19244
       O    -8.51375    1.99959  -11.37702
      H1    -7.74274    1.47483  -11.62788
       H    -9.79986   -0.95817  -12.33415
       O    -9.16942   -1.61913  -12.63601
      H1    -8.75931   -1.92432  -11.81477
       H   -10.80644    0.93701  -10.89455
       O   -11.12312    0.15330  -11.39387
      H1   -12.01493    0.40092  -11.64629
       H    -6.14399    0.11297  -12.93495
       O    -6.10872    0.76562  -12.23743
      H1    -5.88758    0.21131  -11.47751
       H   -11.91354   -0.51672  -14.78897
       O   -12.71406   -0.04008  -15.04119
      H1   -12.35250    0.80881  -15.23753
       H    -8.86046    2.80467  -19.11196
       O    -8.97776    3.50409  -18.42344
      H1    -8.61244    3.03652  -17.66625
       H   -14.20782   -1.97597  -16.73628
       O   -14.08771   -1.15092  -17.20790
      H1   -13.54805   -0.60840  -16.58143
       H    -7.40230    1.64102  -17.06459
       O    -7.66317    2.21781  -16.31990
      H1    -6.99198    2.93604  -16.26875
       H    -5.96587   -0.71560  -15.37821
       O    -6.62119   -0.21032  -14.90690
      H1    -6.49546    0.70460  -15.25065
       H    -9.76983   -0.60410  -17.35079
       O    -9.33037    0.20392  -17.61707
      H1    -8.67216   -0.08820  -18.23825
       H   -11.09318   -1.84849  -18.13178
       O   -10.61521   -2.31597  -17.45041
      H1    -9.98781   -2.83270  -17.95441
       H   -13.24675   -2.32584  -13.87130
       O   -13.76976   -2.49626  -13.06851
      H1   -14.37310   -3.22823  -13.27453
       H    -7.49265   -3.57750  -18.56146
       O    -8.03220   -2.87552  -18.15755
      H1    -7.38201   -2.36120  -17.64129
       H    -9.16269   -0.60875  -14.25226
       O    -9.68613   -0.13023  -14.89329
      H1    -9.17783   -0.22002  -15.71174
       H    -6.87887   -3.31525  -13.13896
       O    -6.89347   -4.21211  -13.48035
      H1    -6.58662   -4.18582  -14.41852
       H   -11.38634    2.38442  -15.06495
       O   -11.55311    2.53001  -16.00251
      H1   -10.74643    2.19551  -16.41932
       H   -10.75472   -2.03267  -15.10222
       O   -11.47109   -2.45904  -14.61207
      H1   -11.04693   -2.57568  -13.74721
       H    -9.60240    3.23445  -14.04396
       O   -10.12126    2.50017  -13.68956
      H1    -9.73414    1.76158  -14.13778

