60
frame 3 | Written by MDAnalysis XYZWriter (release 2.4.3)
       H     0.94568   18.33575    2.17712
       O    -0.03199   18.50477    2.24100
      H1    -0.07331   19.28864    2.80439
       H     1.89169   17.93540   -3.64281
       O     2.65991   18.36101   -3.24902
      H1     3.37098   17.83444   -3.62837
       H     2.99886   12.96479   -1.91753
       O     2.47065   12.50838   -1.22332
      H1     1.70703   13.10698   -1.14593
       H     3.84045   12.54864    0.07167
       O     4.17749   11.95747    0.74429
      H1     4.54326   12.54201    1.41073
       H     7.18906   17.34233    3.65251
       O     7.51023   17.17750    2.77094
      H1     6.74331   16.83549    2.27114
       H     1.68335   15.11776   -2.87109
       O     2.62068   14.96140   -3.06550
      H1     2.56486   14.17022   -3.63263
       H     0.28091   19.44034   -3.45596
       O    -0.17960   18.65972   -3.75537
      H1    -0.48125   18.26682   -2.91704
       H     3.76705   13.23994    3.93955
       O     3.92184   14.19698    4.00245
      H1     3.38683   14.53986    3.30302
       H     5.46037   17.47117   -0.96884
       O     6.16447   17.58014   -1.61141
      H1     6.86112   17.99421   -1.06191
       H    -1.20129   16.04717    1.27752
       O    -0.40517   16.31657    0.78660
      H1    -0.13990   17.05541    1.30065
       H     5.24330   12.35976   -2.85072
       O     5.15239   12.98118   -2.12762
      H1     5.96269   13.52380   -2.12879
       H     7.68808   15.08310   -0.75962
       O     6.99983   14.97729   -1.40755
      H1     6.57709   15.82835   -1.51054
       H     5.66902   15.23559    1.89089
       O     5.44685   16.03675    1.39017
      H1     5.00779   15.71784    0.59500
       H    -0.38648   14.31554   -1.61478
       O     0.45323   14.40094   -1.18993
      H1     0.39192   14.97935   -0.42685
       H     5.56799   18.15472   -4.40494
       O     6.22079   18.79723   -4.69522
      H1     6.17483   19.50432   -4.07727
       H     1.40866   14.85343    1.97498
       O     2.28766   14.61199    1.63960
      H1     2.46885   15.20848    0.91730
       H     4.01363   15.98290   -4.00701
       O     4.17640   16.68094   -4.62458
      H1     3.63427   16.43133   -5.39834
       H     2.79648   17.11181   -0.68786
       O     3.18570   16.25589   -0.78461
      H1     2.68350   15.84121   -1.48998
       H     3.16194   18.09587    2.76269
       O     2.46348   17.45121    2.56478
      H1     2.91080   16.76414    2.05576
       H    -0.97037   17.08229   -0.81708
       O    -1.46379   17.43572   -1.58014
      H1    -2.30333   16.95237   -1.58947

