60
frame 3 | Written by MDAnalysis XYZWriter (release 2.4.3)
       H    -6.62861  -12.12404  -11.41943
       O    -6.48771  -11.44340  -10.75605
      H1    -7.01856  -11.68831   -9.98892
       H   -10.82142  -12.78794   -6.07791
       O   -11.12979  -11.87442   -6.13069
      H1   -11.92548  -11.93406   -6.66368
       H   -11.07749   -8.24548   -9.28973
       O   -11.24319   -9.22467   -9.30790
      H1   -10.62059   -9.50340   -9.96784
       H   -12.48778   -9.11714   -4.54911
       O   -13.39889   -9.00768   -4.88861
      H1   -13.88104   -9.85092   -4.73925
       H   -12.94018  -11.90603   -3.36232
       O   -12.18831  -12.47931   -3.61776
      H1   -11.76640  -11.97714   -4.34978
       H    -9.32429  -12.54826   -9.41125
       O    -8.42250  -12.26303   -9.17643
      H1    -8.59128  -11.63348   -8.48192
       H   -13.69812  -11.95439   -8.02045
       O   -13.11277  -11.21449   -7.85999
      H1   -12.77961  -11.07335   -8.75520
       H    -8.31046  -10.00065  -11.06713
       O    -9.14426   -9.53677  -11.07737
      H1    -9.03416   -8.99571  -11.89666
       H    -8.83635   -9.04295   -4.72181
       O    -9.10664   -9.62814   -4.00327
      H1    -8.24345   -9.92161   -3.60442
       H    -6.15266  -12.02404   -6.25268
       O    -5.44262  -11.37267   -6.18890
      H1    -4.94312  -11.48198   -7.01627
       H    -6.26676  -13.77569   -7.27277
       O    -7.10977  -13.35225   -7.00542
      H1    -7.33695  -12.80338   -7.78865
       H    -5.66158   -8.77289   -7.74203
       O    -5.99376   -8.98350   -6.87585
      H1    -6.01997   -9.96491   -6.82133
       H   -12.06360  -12.01218  -10.15420
       O   -12.78761  -11.50669  -10.53106
      H1   -12.35160  -10.88235  -11.13323
       H   -10.52865  -14.15973   -9.70874
       O   -10.76160  -13.39061  -10.24732
      H1   -10.48160  -13.64322  -11.13592
       H   -10.40960   -8.98348   -2.91670
       O   -10.97044   -8.32880   -2.50011
      H1   -10.51214   -7.49217   -2.71574
       H   -10.79548   -6.20229   -8.27719
       O   -10.76255   -6.46559   -9.20568
      H1   -11.60031   -6.18893   -9.60982
       H   -10.15151  -10.66735   -6.95648
       O    -9.58207   -9.99446   -7.40882
      H1   -10.16747   -9.64092   -8.09290
       H   -10.20780   -6.72784   -6.29369
       O   -10.79699   -5.97538   -6.40964
      H1   -10.22952   -5.21906   -6.17131
       H    -8.95332   -8.61313   -6.60777
       O    -8.82444   -7.87496   -6.00473
      H1    -7.87723   -7.84256   -5.86210
       H    -8.16482  -12.49718   -3.79053
       O    -7.25688  -12.76088   -3.54808
      H1    -7.37030  -13.41520   -2.86840

