60
frame 2 | Written by MDAnalysis XYZWriter (release 2.4.3)
       H     3.50731  -15.41495    9.70917
       O     2.66881  -15.85843    9.50946
      H1     2.68043  -15.98386    8.53809
       H     5.36954  -11.16578    7.52674
       O     6.08358  -10.60259    7.18360
      H1     6.00235  -10.54118    6.25464
       H     7.22555  -16.48863    6.31569
       O     6.75144  -16.58791    5.49258
      H1     7.46460  -16.85531    4.90003
       H     5.42626  -18.72314    7.40494
       O     5.52583  -18.08464    8.11195
      H1     4.68207  -18.11686    8.52337
       H     5.18217  -16.86472    4.76557
       O     4.31413  -17.18555    4.49290
      H1     3.73403  -16.92324    5.22337
       H     2.69848  -10.95934    8.55070
       O     3.20367  -11.63938    8.08793
      H1     2.56812  -12.36504    7.92545
       H     2.53546  -15.78583    6.64295
       O     2.84500  -16.67725    6.86522
      H1     2.05543  -17.23761    6.87171
       H     8.67268  -16.55175    8.55346
       O     8.17101  -16.15802    7.81925
      H1     8.46181  -15.25018    7.70478
       H     5.60783  -13.35404    2.52713
       O     5.61702  -13.54281    3.47889
      H1     5.45239  -12.70990    3.88957
       H     3.65104  -14.36967    6.66553
       O     2.76935  -14.04107    6.42589
      H1     2.55496  -14.41379    5.58636
       H     8.27006  -10.87749    8.59488
       O     7.91145  -11.71493    8.88632
      H1     7.09861  -11.83509    8.38727
       H     5.44056  -15.94363    9.94500
       O     5.41842  -15.05681    9.55879
      H1     5.93303  -15.09586    8.74268
       H     2.72892  -12.27849    5.56606
       O     2.95109  -11.34101    5.53168
      H1     3.05790  -11.19628    6.47739
       H     8.40017  -10.92663    5.68544
       O     9.09717  -10.37615    5.31140
      H1     9.85227  -10.99620    5.40090
       H     8.81138  -13.40582    6.44424
       O     9.19071  -13.52699    7.33280
      H1     8.83337  -12.83680    7.89143
       H     4.51889  -10.68074    4.82243
       O     5.43706  -10.63796    4.56206
      H1     5.50371   -9.69222    4.42658
       H     3.72863  -12.41224    9.72858
       O     4.12536  -12.78691   10.52850
      H1     4.57380  -13.59701   10.20782
       H     6.94819  -13.80065   10.98281
       O     6.89311  -13.22423   11.75723
      H1     5.95316  -12.97956   11.82059
       H     5.86789  -15.14378    6.39237
       O     5.82965  -14.37439    6.97380
      H1     6.55150  -13.80049    6.74053
       H     8.59060  -12.83960    4.01799
       O     8.03037  -13.01574    4.78450
      H1     7.14381  -13.15356    4.47087

