60
frame 3 | Written by MDAnalysis XYZWriter (release 2.4.3)
       H    -3.58943   -9.40409   -4.55685
       O    -4.33116   -8.77948   -4.46698
      H1    -4.78689   -8.84565   -5.32890
       H    -0.19447   -6.96235   -1.93985
       O    -0.98741   -7.00621   -1.34601
      H1    -0.66435   -7.07888   -0.44396
       H     1.16087  -11.27683    1.06550
       O     0.48378  -11.29678    0.36969
      H1     0.89928  -11.77260   -0.35768
       H    -3.84701  -13.47670   -3.84599
       O    -3.81933  -13.32355   -4.80066
      H1    -4.41779  -12.54898   -4.92544
       H     0.71479  -14.54479   -1.29203
       O    -0.11377  -14.06731   -1.24747
      H1    -0.35823  -13.92926   -2.18814
       H    -3.20497  -10.38185    0.88805
       O    -3.89294   -9.78737    0.61225
      H1    -4.64653  -10.37898    0.46604
       H    -3.44885  -13.07983   -1.14513
       O    -3.96007  -13.01607   -1.94906
      H1    -4.87665  -13.16860   -1.70629
       H    -7.33995   -9.09282   -0.87146
       O    -7.03210   -8.38850   -0.24945
      H1    -6.17569   -8.08784   -0.60764
       H    -2.10011   -7.22219   -5.86953
       O    -1.72188   -7.54945   -5.02248
      H1    -2.55295   -7.60806   -4.48781
       H    -3.33794  -10.95623   -1.99498
       O    -2.66033  -10.31439   -1.79670
      H1    -3.07445   -9.83474   -1.07590
       H    -3.72130   -7.59846   -3.25378
       O    -3.21591   -6.81409   -2.96473
      H1    -2.38130   -7.18972   -2.67823
       H     1.34245  -11.30613   -2.54638
       O     1.85868  -11.82397   -1.91579
      H1     1.49539  -12.71722   -1.97118
       H    -0.63292  -11.51411   -3.27265
       O    -0.37929  -10.60228   -3.16306
      H1    -0.95058  -10.32702   -2.44715
       H    -4.10641   -6.42945   -1.55118
       O    -4.55332   -6.43356   -0.67919
      H1    -3.85376   -6.29672   -0.01581
       H    -2.83014  -11.44488   -4.76830
       O    -2.41504  -10.59494   -4.96138
      H1    -1.65116  -10.55744   -4.38225
       H     0.21198   -8.25698    2.19008
       O     0.35471   -9.21970    2.29327
      H1    -0.19774   -9.55731    1.59471
       H    -1.86499  -11.85632    2.39482
       O    -2.15607  -11.73036    1.47020
      H1    -1.30382  -11.63223    1.04335
       H    -6.37978  -11.84266    0.51743
       O    -5.99347  -11.57263   -0.33521
      H1    -6.75917  -11.10587   -0.69235
       H     0.24046  -13.18163   -4.36061
       O    -0.53951  -13.27126   -3.81215
      H1    -0.96769  -14.08596   -4.19664
       H    -5.59102   -9.78395   -3.41514
       O    -6.41864  -10.09393   -2.94163
      H1    -6.39545  -11.05208   -3.14667

