60
frame 0 | Written by MDAnalysis XYZWriter (release 2.4.3)
       H    -7.43611   14.73585  -10.39105
       O    -6.51095   14.72331  -10.66990
      H1    -6.11188   15.13221   -9.86661
       H    -3.94794    6.87945  -12.40005
       O    -4.39521    7.67874  -12.63416
      H1    -4.11987    8.26572  -11.91248
       H    -7.24174   11.64736  -16.09829
       O    -8.11509   11.44128  -15.76727
      H1    -8.49354   10.94544  -16.48530
       H    -7.73017   10.52188  -12.70061
       O    -7.69271    9.96646  -13.46529
      H1    -7.85076   10.60520  -14.17813
       H    -5.64704   11.96706   -9.30249
       O    -6.26218   12.30535   -8.62442
      H1    -5.70427   12.95431   -8.15352
       H    -9.57267   13.47798  -13.91021
       O    -9.48017   14.41593  -14.12879
      H1    -8.57260   14.61283  -13.80047
       H    -8.40260   11.23493  -11.04096
       O    -7.64186   11.69744  -11.43631
      H1    -7.99567   12.55741  -11.71698
       H    -5.77010   12.42756  -10.91517
       O    -4.81307   12.31364  -10.96577
      H1    -4.67128   11.35622  -10.89666
       H    -6.56803   15.38365  -12.40688
       O    -7.02887   15.45494  -13.28311
      H1    -7.26343   16.41035  -13.36490
       H    -3.98303   13.01494  -16.94485
       O    -3.14771   13.44808  -16.89416
      H1    -3.15445   13.82605  -15.99927
       H    -7.15519    7.50869  -17.80519
       O    -7.16056    7.38545  -16.81611
      H1    -6.36453    7.84675  -16.52068
       H    -5.23178   11.36752  -15.99082
       O    -5.49761   11.88273  -16.77655
      H1    -5.19797   11.34850  -17.50245
       H    -4.10982    9.24188  -16.63223
       O    -4.75570    9.04242  -15.94696
      H1    -4.26148    8.80885  -15.16223
       H    -8.62940    8.50686  -12.73448
       O    -9.04421    7.66665  -12.52072
      H1    -8.32145    7.00607  -12.66827
       H    -7.04071    5.54367  -11.37876
       O    -6.65679    5.81650  -12.27158
      H1    -5.89252    6.34323  -12.06048
       H    -5.85544   10.92716  -13.48506
       O    -5.23371   11.59377  -13.80407
      H1    -5.19040   12.21028  -13.05173
       H    -2.27431   10.94006  -12.94514
       O    -2.79404   10.28522  -13.38825
      H1    -3.70041   10.64255  -13.47677
       H    -3.75497    9.96539   -9.93663
       O    -4.49338    9.62226  -10.40415
      H1    -5.03824    9.13736   -9.79199
       H    -2.43084   11.77415  -16.19064
       O    -2.12637   10.85100  -16.06876
      H1    -2.17192   10.75010  -15.11104
       H    -2.79685    6.33690  -14.80224
       O    -2.45577    7.19521  -15.06732
      H1    -2.58701    7.73624  -14.29212

