60
frame 2 | Written by MDAnalysis XYZWriter (release 2.4.3)
       H   -14.49739   -5.80749   15.02852
       O   -14.36574   -4.86480   14.95387
      H1   -14.77465   -4.60242   14.09669
       H   -14.15771   -1.41739   15.74778
       O   -13.29230   -0.98843   15.51178
      H1   -12.60351   -1.67722   15.45789
       H   -15.69345    0.92371   16.90169
       O   -15.57309    0.65752   17.81004
      H1   -14.76554    1.11984   18.06549
       H   -17.11571   -2.19338   17.49015
       O   -17.97181   -2.05551   17.93154
      H1   -18.07761   -1.10345   18.03144
       H   -12.90424   -1.79559   12.22633
       O   -12.96000   -0.97247   12.74739
      H1   -12.87554   -1.30067   13.64068
       H   -12.83850   -0.55700   17.92091
       O   -12.55901   -1.31858   18.45079
      H1   -13.17502   -1.33356   19.20786
       H   -14.24594    1.85924   14.10240
       O   -13.36786    1.66074   14.38117
      H1   -13.51655    0.86717   14.87264
       H   -16.39234   -7.98676   17.91839
       O   -16.01275   -7.15981   17.60470
      H1   -15.06641   -7.31211   17.76222
       H   -15.40597   -1.01093   17.27269
       O   -15.56510   -1.74767   16.67052
      H1   -15.05352   -2.48637   16.94383
       H   -15.81467   -2.95797   12.66720
       O   -15.29371   -3.73950   12.77178
      H1   -15.36544   -4.19109   11.89425
       H   -17.33618   -1.54953   15.60564
       O   -17.82566   -1.43745   14.77882
      H1   -17.09094   -1.12674   14.21024
       H   -14.07785   -4.07622   16.49086
       O   -13.88570   -3.71663   17.34298
      H1   -13.31191   -2.97362   17.16763
       H   -17.74825   -6.43672   16.09414
       O   -17.56126   -6.33073   15.14212
      H1   -18.28194   -6.86789   14.76080
       H   -14.89292   -0.95413   13.29738
       O   -15.80287   -0.93071   12.96780
      H1   -15.64863   -1.03077   12.02278
       H   -18.30363   -3.43477   12.22587
       O   -18.40281   -3.04640   11.34547
      H1   -19.36049   -2.79666   11.28265
       H   -16.46572    1.72170   14.57428
       O   -16.64432    1.05869   15.24420
      H1   -17.32311    1.45804   15.78600
       H   -18.60501   -3.20528   14.32745
       O   -18.85048   -4.00785   13.82380
      H1   -18.08491   -4.61333   13.96001
       H   -18.16611    1.10444   19.35311
       O   -18.83734    0.50593   19.00001
      H1   -18.92785    0.80272   18.08634
       H   -12.51564   -4.62573   18.27426
       O   -11.76974   -4.91871   18.84962
      H1   -11.64036   -4.16282   19.45650
       H   -14.68523   -8.27771   15.33092
       O   -14.99639   -7.44866   14.94155
      H1   -15.73708   -7.21177   15.53037

