60
frame 5 | Written by MDAnalysis XYZWriter (release 2.4.3)
       H    -4.67474  -16.46298   10.41023
       O    -4.82800  -16.37787    9.42814
      H1    -4.45210  -17.26004    9.06104
       H    -5.92258  -17.50019   12.68083
       O    -5.18441  -16.89800   12.50679
      H1    -4.42201  -17.19111   13.03578
       H    -5.72284  -17.52021    5.81071
       O    -4.91893  -16.91241    5.69731
      H1    -5.27079  -16.06809    5.41733
       H    -8.02510  -11.10429   10.24764
       O    -7.10069  -11.24414    9.92526
      H1    -7.15563  -11.34565    8.97612
       H    -8.69648  -12.58986   12.06627
       O    -7.96536  -13.11891   12.25317
      H1    -7.44071  -13.10056   11.41029
       H    -7.16474  -14.37142   12.89475
       O    -6.78344  -15.12220   13.50114
      H1    -6.21391  -15.71286   13.02065
       H    -3.24350  -16.26016    7.14068
       O    -2.30053  -16.17814    7.28119
      H1    -2.09144  -16.86570    6.66359
       H    -3.92483  -14.96871    9.91431
       O    -3.43836  -14.19417   10.21334
      H1    -2.49835  -14.64645   10.15532
       H     0.01163  -18.63315    9.07570
       O    -0.81758  -18.14318    9.34935
      H1    -0.56724  -17.22695    9.47645
       H    -3.94025  -13.67649   11.90790
       O    -4.38273  -13.62669   12.77885
      H1    -5.11183  -14.25106   12.75548
       H    -7.27247  -18.53879    9.94028
       O    -8.15680  -18.33475    9.58861
      H1    -7.86775  -18.25223    8.64230
       H    -3.64480  -18.76206    7.50766
       O    -3.48083  -18.62211    8.46065
      H1    -2.57126  -18.39849    8.57852
       H    -5.44300  -11.72234   12.98248
       O    -5.62140  -10.76925   12.99195
      H1    -6.00343  -10.59622   13.90587
       H    -2.91210  -14.71238    6.56913
       O    -3.28147  -13.90016    6.15188
      H1    -3.99723  -14.13531    5.51889
       H    -3.12036  -14.63371   13.17872
       O    -2.30400  -15.12508   13.14286
      H1    -2.36179  -15.43593   12.23226
       H    -7.88940  -15.29181    8.08826
       O    -6.96871  -15.41252    7.68692
      H1    -6.42869  -15.82460    8.36289
       H    -3.63433  -11.85358    8.88857
       O    -3.92302  -11.64048    7.97677
      H1    -3.50593  -12.34271    7.46660
       H    -6.92252  -13.53036    7.51502
       O    -6.71110  -12.60852    7.38091
      H1    -5.76184  -12.68032    7.47447
       H    -4.75012  -10.58483   11.04273
       O    -3.90832  -10.45888   10.64321
      H1    -3.99641   -9.66290   10.07328
       H     0.03807  -15.10405   10.20716
       O    -0.83816  -14.92398   10.52103
      H1    -0.63938  -14.16527   11.10608

