60
frame 3 | Written by MDAnalysis XYZWriter (release 2.4.3)
       H    13.31500   16.27092   -2.26229
       O    13.45249   15.88533   -1.36888
      H1    12.85679   15.13093   -1.34010
       H    11.41142   11.25161    6.30732
       O    11.36479   10.31645    6.05699
      H1    10.44084   10.09060    6.23190
       H    17.08547   13.43602    4.08349
       O    16.32427   12.90170    4.34491
      H1    16.37303   12.99780    5.31133
       H    14.34720   12.48919   -0.61642
       O    14.71992   12.44657    0.28360
      H1    14.90565   11.50877    0.41564
       H    13.50865   18.08573    2.22776
       O    12.70132   17.66451    2.55699
      H1    12.86460   17.65005    3.50248
       H    10.12517   11.24248    2.94977
       O    10.52896   11.68824    3.70790
      H1    10.80656   10.93687    4.24370
       H    11.65035   13.50613    7.46342
       O    11.43155   13.00543    6.68823
      H1    10.92208   13.61209    6.18532
       H    11.10355   15.48298    5.72072
       O    10.73009   14.96452    5.00630
      H1    11.25010   15.17351    4.22378
       H    12.53696   10.93201    1.94435
       O    12.40163   11.44169    1.15288
      H1    13.28400   11.74795    0.89230
       H     8.86188   15.08790    1.33841
       O     9.13098   15.56559    0.56136
      H1     9.75513   14.94017    0.12579
       H    12.23710   12.98888    2.36901
       O    12.20903   13.95680    2.22032
      H1    13.09070   14.24397    2.25430
       H    12.79227    8.84490    1.83077
       O    13.05398    9.06739    2.72211
      H1    12.39849    8.59085    3.22304
       H    15.20312   14.81608    3.68549
       O    14.80374   15.32816    2.97195
      H1    14.16422   15.85226    3.46440
       H    15.37196    9.81391    3.47191
       O    16.17610   10.22040    3.80640
      H1    15.95764   11.14165    3.80965
       H    10.87608   10.86744   -0.18913
       O    10.07998   10.79598   -0.66549
      H1     9.54337   10.28090   -0.04647
       H     9.52367   13.57422    3.36811
       O     8.83744   14.16542    2.97703
      H1     8.82750   14.94912    3.56752
       H    16.44902   12.99334    0.09352
       O    17.21092   13.60293    0.04794
      H1    16.82339   14.44344    0.29435
       H    15.50285   15.62005    1.44714
       O    15.66604   15.92489    0.55107
      H1    14.83690   15.72669    0.09348
       H    11.48192   13.96905    0.34561
       O    11.21168   14.37551   -0.49508
      H1    10.88286   13.64103   -1.03253
       H     8.42793    9.25191    1.87983
       O     8.77551    9.98090    1.36611
      H1     8.04188   10.59033    1.26071

