60
frame 2 | Written by MDAnalysis XYZWriter (release 2.4.3)
       H    17.34050    7.57806    8.28975
       O    18.26101    7.39610    8.23018
      H1    18.23673    6.59065    7.69065
       H    19.16186    5.21072    6.50446
       O    18.33708    4.88815    6.94890
      H1    18.17154    4.06143    6.50384
       H    16.26494    2.55917    6.54011
       O    16.48069    3.05397    5.73514
      H1    16.50881    2.34624    5.07218
       H    18.02083    8.49184   12.04435
       O    18.96298    8.24900   12.14097
      H1    18.93313    7.54990   12.83248
       H    17.79063    3.25309   11.73275
       O    17.11851    3.19678   11.03836
      H1    16.78498    4.10499   10.96980
       H    14.14406    6.87647    3.59835
       O    13.56616    6.62534    4.31713
      H1    14.02592    6.98482    5.12692
       H    15.05551    5.36333   10.42415
       O    15.79313    5.72214   10.93246
      H1    16.18206    6.31691   10.30093
       H    18.40075    5.59137    3.04022
       O    19.25136    5.20989    3.24762
      H1    19.12362    4.27527    3.19809
       H    16.23276    9.40968    9.34466
       O    16.02620    8.48905    9.39200
      H1    15.49957    8.36256   10.18607
       H    18.27644    1.66404    5.38963
       O    19.18722    1.53590    5.67260
      H1    19.45562    0.80925    5.07983
       H    15.95843    1.46041    8.58531
       O    15.91335    2.42156    8.63388
      H1    16.57935    2.58613    9.35111
       H    14.33105    3.32480    9.23963
       O    13.62070    3.84947    9.66451
      H1    13.24617    4.37663    8.95489
       H    16.31770    5.91764    5.33292
       O    16.02111    6.37680    6.12766
      H1    16.25166    5.75254    6.82534
       H    15.13219    8.25559    6.74737
       O    14.42099    8.73269    6.23928
      H1    14.90795    9.00428    5.43606
       H    16.44743    6.76480    2.30623
       O    17.23524    7.13082    2.76639
      H1    16.94801    8.00003    3.00608
       H    17.09825   10.63726   12.35393
       O    16.78043    9.85700   11.92897
      H1    16.80224   10.17180   11.01748
       H    18.52446    8.64480    4.72357
       O    17.96786    8.68624    5.52702
      H1    17.91516    7.76468    5.80413
       H    17.60844   11.41260    9.13995
       O    16.80585   11.14603    9.57879
      H1    16.43747   12.00438    9.84006
       H    14.15940    4.84124    4.67591
       O    14.36667    3.94587    4.36765
      H1    15.02988    3.61986    4.98075
       H    16.59001    9.36935    4.55797
       O    15.79139    9.40832    3.98801
      H1    15.78100   10.27276    3.55611

