60
frame 3 | Written by MDAnalysis XYZWriter (release 2.4.3)
       H    -1.13579  -13.19152  -12.45336
       O    -0.38522  -12.81612  -12.93417
      H1    -0.79490  -12.01295  -13.29614
       H    -0.50133  -13.32940  -15.00855
       O    -0.59250  -13.87078  -15.79173
      H1    -0.32275  -13.34845  -16.56583
       H    -0.53928  -17.58749  -16.72365
       O    -1.40589  -17.14288  -16.65936
      H1    -1.93015  -17.76333  -16.14856
       H    -0.41058  -16.90308  -11.98102
       O    -0.46483  -17.27084  -11.09701
      H1     0.36876  -16.99635  -10.69855
       H    -0.81568  -15.90890  -14.37385
       O    -1.11663  -16.34436  -13.57717
      H1    -1.44290  -17.21064  -13.84555
       H     1.97696  -15.40655  -16.13973
       O     1.95394  -15.72093  -17.03837
      H1     1.09430  -15.39263  -17.34088
       H    -4.01581  -16.43169  -15.65362
       O    -4.45303  -17.32592  -15.58275
      H1    -3.91780  -17.79689  -14.98329
       H    -4.12896  -11.56796  -13.81223
       O    -3.25330  -11.37054  -13.46379
      H1    -2.97558  -10.56024  -13.95469
       H    -3.20858  -13.08282  -12.15629
       O    -2.56579  -13.33486  -11.45354
      H1    -2.82725  -14.26092  -11.24485
       H    -3.03891  -16.35766  -10.88006
       O    -3.23965  -16.15464  -11.79795
      H1    -2.39164  -16.00334  -12.23718
       H    -6.06960  -17.59688  -14.66227
       O    -6.92481  -17.51632  -14.24830
      H1    -6.73458  -17.60391  -13.31067
       H    -4.56012  -15.05588  -12.67851
       O    -5.03448  -14.65409  -13.41170
      H1    -5.60601  -15.35446  -13.68255
       H    -2.61061  -14.75951  -15.34059
       O    -3.49935  -14.80118  -15.64853
      H1    -4.01441  -14.71031  -14.84630
       H    -4.10401  -17.58802  -18.93102
       O    -4.73795  -18.04037  -18.33056
      H1    -4.57539  -17.60577  -17.53075
       H    -5.34687  -12.73842  -15.14517
       O    -5.66171  -11.84768  -15.13199
      H1    -5.34002  -11.41270  -15.91309
       H    -3.28864  -14.22930  -18.87794
       O    -2.64311  -13.82098  -18.26650
      H1    -2.91704  -14.11774  -17.39065
       H    -7.74566  -15.50536  -15.47914
       O    -7.17933  -14.70721  -15.52922
      H1    -6.78312  -14.75978  -16.39637
       H    -3.80595  -11.19674  -19.03989
       O    -2.85758  -11.24093  -18.86335
      H1    -2.85383  -12.06880  -18.36510
       H    -6.91846  -13.40426  -18.21507
       O    -6.08557  -13.73603  -17.96417
      H1    -5.45957  -13.42304  -18.60432
       H    -1.06970  -16.09386  -18.11571
       O    -0.69960  -15.62113  -18.84127
      H1    -1.05237  -14.73904  -18.68786

