60
frame 2 | Written by MDAnalysis XYZWriter (release 2.4.3)
       H   -19.16526    1.99428   -5.15355
       O   -18.50244    2.41625   -5.73109
      H1   -18.19331    1.69056   -6.29269
       H   -17.52903    5.75375   -3.38895
       O   -17.23679    6.26333   -4.15293
      H1   -17.64338    7.11815   -3.91238
       H   -16.40279   -0.98150   -1.80821
       O   -16.33505   -0.67303   -2.73061
      H1   -16.72661    0.21218   -2.69325
       H   -12.90023    3.52425   -4.63736
       O   -12.18851    4.16004   -4.60763
      H1   -11.91060    4.16505   -3.66795
       H   -15.13373    2.28527   -4.56892
       O   -14.35124    2.62381   -5.00457
      H1   -13.96618    1.88428   -5.51564
       H   -18.55630    4.17611   -6.17689
       O   -18.84044    5.08925   -6.31593
      H1   -18.43592    5.54350   -5.57484
       H   -17.40462    2.41954    1.05055
       O   -18.00385    2.49453    0.27758
      H1   -18.21975    1.62568   -0.04326
       H   -14.46245    6.88328   -5.76588
       O   -15.36368    6.66821   -6.06084
      H1   -15.74390    6.27802   -5.26803
       H   -14.03489    3.97768   -1.87157
       O   -13.59178    3.14926   -1.68257
      H1   -12.66193    3.21440   -1.93805
       H   -17.50422    2.43276   -2.89158
       O   -17.21500    1.73105   -3.47944
      H1   -17.70348    1.88725   -4.29297
       H   -13.97259    1.47400   -0.42050
       O   -13.64682    1.51006    0.46949
      H1   -13.47238    2.45870    0.63638
       H   -13.43747   -0.98852   -3.33077
       O   -13.35436   -1.94900   -3.36982
      H1   -12.40979   -2.09209   -3.56160
       H   -14.75276    0.06933   -5.08809
       O   -14.94892   -0.46041   -5.87807
      H1   -14.18861   -0.29788   -6.45508
       H   -15.71808   -3.92176   -4.14846
       O   -15.90866   -3.57705   -3.25945
      H1   -16.00106   -2.60948   -3.38185
       H   -16.15834   -1.85284   -6.81774
       O   -16.31175   -2.62096   -7.35803
      H1   -15.95430   -2.43309   -8.24380
       H   -17.22201    3.45790   -0.95721
       O   -16.68551    3.83901   -1.65573
      H1   -16.23383    4.56742   -1.22701
       H   -14.59550    4.93359   -7.78087
       O   -14.39205    3.97826   -7.64072
      H1   -14.79438    3.87784   -6.76647
       H   -16.87321    1.69566   -7.77077
       O   -17.15139    0.86620   -7.37746
      H1   -16.40560    0.56525   -6.84010
       H   -13.79374    1.37213   -2.43333
       O   -13.90599    0.40926   -2.34227
      H1   -14.83584    0.20449   -2.55498
       H   -17.67111   -1.39717   -4.14884
       O   -17.81511   -2.06323   -4.78736
      H1   -17.97350   -2.87529   -4.26083

