60
frame 3 | Written by MDAnalysis XYZWriter (release 2.4.3)
       H    -8.45990   16.06376  -11.11024
       O    -8.46069   15.50885  -11.92755
      H1    -8.05299   14.64579  -11.64516
       H    -7.99948    7.81537  -14.48253
       O    -8.53330    8.54147  -14.75690
      H1    -7.97740    9.34244  -14.79529
       H    -9.29427   11.35291  -12.20647
       O    -8.61962   11.06767  -11.58004
      H1    -8.74498   10.11030  -11.58854
       H   -11.36899   10.76595   -9.98043
       O   -12.14744   11.16954   -9.57460
      H1   -12.52434   10.37047   -9.20013
       H    -7.68738   14.28913  -16.25495
       O    -8.19198   13.50465  -16.48636
      H1    -7.46897   12.86163  -16.59880
       H   -12.10555    8.26187  -16.38551
       O   -11.72727    8.80669  -15.69070
      H1   -10.79729    8.97062  -15.92214
       H   -11.79038   14.17909  -14.89257
       O   -12.04901   13.76473  -15.71723
      H1   -11.59427   14.37136  -16.32624
       H    -6.35803   13.12651  -12.31649
       O    -6.98656   13.17078  -11.58981
      H1    -7.43979   12.32502  -11.64137
       H   -13.78191   11.28001  -12.54998
       O   -13.73381   11.94524  -11.84062
      H1   -13.01605   11.59176  -11.31955
       H   -12.73849   13.60564  -11.15440
       O   -12.14075   14.35995  -11.04023
      H1   -11.60472   14.38738  -11.86032
       H   -14.89277   13.15779  -12.56150
       O   -15.06232   13.90942  -13.16853
      H1   -15.43385   13.49930  -13.93976
       H    -8.14066    8.00774  -11.92750
       O    -9.01475    8.42364  -12.04223
      H1    -9.10611    8.32715  -13.03876
       H   -12.09148    8.97830  -12.66857
       O   -11.81696    8.18160  -12.16702
      H1   -10.89055    8.35189  -11.93478
       H    -5.71262   10.23035  -14.18781
       O    -6.45351   10.35788  -14.77113
      H1    -6.53508   11.32223  -14.81925
       H   -12.68715   10.63270  -16.13590
       O   -12.87814   11.22110  -16.87049
      H1   -12.57703   12.09333  -16.57942
       H   -14.50448    9.99101  -13.92661
       O   -13.60416    9.79944  -13.71518
      H1   -13.27746    9.35190  -14.51937
       H   -11.39335   15.35690  -13.31591
       O   -10.78562   14.60910  -13.30126
      H1   -10.00060   14.98249  -12.90068
       H    -8.50434   11.08954   -9.76342
       O    -8.96151   10.87013   -8.93458
      H1    -8.18621   10.86630   -8.34489
       H   -10.74196   12.60441  -13.08383
       O   -10.71645   11.64300  -13.07582
      H1   -10.46204   11.45909  -13.98866
       H    -9.45023   12.27076  -15.94106
       O    -9.87260   11.43144  -15.81835
      H1   -10.39612   11.26488  -16.61547

