60
frame 2 | Written by MDAnalysis XYZWriter (release 2.4.3)
       H   -11.18503   18.15106   -3.81140
       O   -11.28087   17.29151   -3.40657
      H1   -12.13783   16.97269   -3.71607
       H    -6.59279   15.70206  -10.19874
       O    -6.56771   15.29016  -11.05926
      H1    -6.62574   14.33785  -10.83318
       H    -9.92844   18.30392   -7.01384
       O   -10.12330   17.47675   -7.48445
      H1   -10.82091   17.77716   -8.10374
       H   -10.70028   14.54946   -2.26617
       O   -10.94677   14.20757   -3.12630
      H1   -11.77632   14.62725   -3.34874
       H    -6.75586   14.94380   -2.55580
       O    -6.01462   14.31272   -2.46468
      H1    -5.26534   14.89512   -2.66816
       H    -5.17307   18.11555   -2.21518
       O    -5.82407   17.82210   -1.60004
      H1    -5.52103   18.31657   -0.82781
       H   -12.87974   16.45773   -6.27190
       O   -13.28363   17.29622   -6.51637
      H1   -13.03292   17.47313   -7.44227
       H    -8.46877   18.69599  -10.75336
       O    -7.50064   18.67716  -10.76594
      H1    -7.25108   18.01807  -10.10884
       H    -8.20962   17.21561   -8.15666
       O    -7.37410   16.95964   -8.55584
      H1    -6.77876   16.87073   -7.81960
       H    -9.23583   17.23561   -2.00466
       O    -8.63137   17.84254   -1.51915
      H1    -7.73463   17.66854   -1.85548
       H    -5.91250   13.56429   -4.83438
       O    -6.36989   14.00468   -5.54788
      H1    -7.01598   14.54988   -5.11332
       H   -12.21374   15.02549   -9.88185
       O   -11.66544   15.59691   -9.34965
      H1   -10.81806   15.63598   -9.79371
       H    -8.10625   14.26126   -6.78967
       O    -8.12513   14.02448   -7.74722
      H1    -9.02646   13.71986   -7.85777
       H    -8.53465   15.90321   -3.85983
       O    -8.53658   15.67494   -2.91301
      H1    -9.29879   15.11538   -2.83427
       H    -8.06205   17.39880   -5.72496
       O    -8.11467   16.43706   -5.52140
      H1    -8.96049   16.20107   -5.86350
       H    -5.76036   15.29416   -6.54829
       O    -5.24622   15.81424   -7.19224
      H1    -4.66622   15.14676   -7.54701
       H    -3.23571   18.57529   -3.67055
       O    -3.92882   17.91909   -3.70965
      H1    -3.74073   17.43090   -4.49891
       H    -9.89379   13.19732   -5.64571
       O    -9.16363   13.06476   -5.01176
      H1    -9.55653   13.41858   -4.21666
       H    -3.63329   16.42815   -6.52134
       O    -2.77640   16.72415   -6.25993
      H1    -2.65623   17.55687   -6.74533
       H   -11.34094   13.09691   -7.79285
       O   -10.77805   13.73743   -7.35392
      H1   -10.88332   14.47704   -7.95027

