60
frame 3 | Written by MDAnalysis XYZWriter (release 2.4.3)
       H   -11.54595   -7.07777    8.02313
       O   -12.41259   -6.70295    7.76850
      H1   -12.24688   -6.38376    6.88111
       H   -14.03809  -12.78010    4.21594
       O   -13.89495  -13.07219    3.30054
      H1   -13.09351  -13.62557    3.36471
       H   -10.68202  -11.35489    3.11271
       O   -10.24894  -11.66463    2.30353
      H1    -9.74197  -12.43337    2.53830
       H    -7.80324   -7.51607    5.46046
       O    -8.60166   -8.06420    5.45689
      H1    -9.26294   -7.46247    5.04914
       H   -10.75607  -10.53303    8.28187
       O   -11.50413  -11.11712    8.07682
      H1   -11.21357  -12.00361    8.37815
       H   -11.87438  -11.60951    1.07965
       O   -12.61070  -11.20235    0.60756
      H1   -13.00550  -10.63882    1.26225
       H   -13.03624   -6.57884    3.57440
       O   -12.57627   -7.26238    3.06223
      H1   -12.40465   -7.97495    3.66813
       H   -15.50920  -11.78125    5.48085
       O   -14.56212  -11.98959    5.69687
      H1   -14.55424  -12.11167    6.63020
       H   -11.02658   -8.60637   -0.32025
       O   -10.69838   -9.16880    0.38446
      H1   -11.45868   -9.72784    0.61275
       H   -13.99323   -7.85707    1.63187
       O   -14.27752   -8.19619    0.78769
      H1   -15.08115   -8.64313    1.02637
       H   -14.06198   -9.70846    7.39168
       O   -13.80391   -8.90685    6.88718
      H1   -13.56476   -8.28792    7.52247
       H   -10.68447  -11.36109    6.03677
       O   -10.36941  -11.79581    5.23954
      H1    -9.44990  -11.44613    5.13535
       H    -9.12456  -14.61768    4.43343
       O    -9.61248  -14.34031    5.19229
      H1    -9.64460  -13.39760    5.16549
       H   -13.22472  -10.84845    8.63021
       O   -14.13944  -10.79894    8.82800
      H1   -14.26466  -11.49710    9.48910
       H   -10.84960   -6.69713    3.22341
       O    -9.93155   -6.54096    3.46294
      H1    -9.45302   -7.05759    2.82818
       H    -8.25907   -9.80516    4.62195
       O    -7.81548  -10.66969    4.60695
      H1    -7.48026  -10.82133    5.49402
       H   -15.80553  -11.62277    2.98390
       O   -16.54071  -11.98238    2.43352
      H1   -16.74752  -11.21704    1.87123
       H   -15.10804   -9.39758    3.50591
       O   -14.46348   -9.92512    3.08666
      H1   -13.69046  -10.01794    3.68657
       H   -15.32263   -8.91217    5.56852
       O   -16.13762   -8.96307    5.05502
      H1   -16.50428   -9.78965    5.30652
       H   -11.41112  -10.45546    4.78132
       O   -12.14821   -9.84925    4.75507
      H1   -12.57230   -9.83632    5.62299

