60
frame 2 | Written by MDAnalysis XYZWriter (release 2.4.3)
       H   -11.18503   18.15106   -3.81140
       O   -11.28087   17.29151   -3.40657
      H1   -12.13783   16.97269   -3.71607
       H   -12.93531   12.26554   -6.27826
       O   -13.50759   12.67768   -5.62049
      H1   -12.96705   12.57929   -4.81929
       H   -14.91853   17.79861   -2.59001
       O   -14.21263   17.20226   -2.81239
      H1   -13.57734   17.26286   -2.06893
       H   -10.70028   14.54946   -2.26617
       O   -10.94677   14.20757   -3.12630
      H1   -11.77632   14.62725   -3.34874
       H   -17.96685   15.50171   -3.93318
       O   -18.73733   15.54883   -3.36701
      H1   -18.79700   14.68826   -2.91937
       H   -14.92291   11.00095   -5.36687
       O   -15.08386   10.09619   -5.70186
      H1   -15.95167   10.17761   -6.15042
       H   -12.87974   16.45773   -6.27190
       O   -13.28363   17.29622   -6.51637
      H1   -13.03292   17.47313   -7.44227
       H   -17.72001   12.92020   -5.46079
       O   -18.07593   12.08281   -5.80299
      H1   -17.81263   12.05476   -6.72650
       H   -13.91833   14.26546    1.11345
       O   -13.52703   14.02302    0.26660
      H1   -12.76778   13.48149    0.51376
       H   -11.73277   12.39417   -3.02911
       O   -12.36689   11.71778   -3.36805
      H1   -13.12147   11.85154   -2.77346
       H   -15.01756   12.96062   -2.12615
       O   -14.48871   12.30099   -1.60673
      H1   -14.43061   12.74172   -0.74225
       H   -11.80390   17.02682   -0.84363
       O   -12.69859   16.76519   -0.51396
      H1   -12.70570   15.81099   -0.63286
       H   -16.70643   17.31829   -7.98889
       O   -16.50061   17.36736   -7.00709
      H1   -16.91507   18.16851   -6.72650
       H   -14.47159   14.37983   -7.41818
       O   -14.22533   15.00262   -8.10554
      H1   -14.29965   15.85461   -7.61250
       H   -16.32706   14.43128   -2.19107
       O   -15.57860   14.73496   -2.76365
      H1   -15.60272   15.68597   -2.62892
       H    -9.89379   13.19732   -5.64571
       O    -9.16363   13.06476   -5.01176
      H1    -9.55653   13.41858   -4.21666
       H   -16.54771   15.60789   -5.80445
       O   -16.90072   15.01142   -5.13947
      H1   -16.19239   15.04081   -4.46901
       H   -11.34094   13.09691   -7.79285
       O   -10.77805   13.73743   -7.35392
      H1   -10.88332   14.47704   -7.95027
       H   -13.94848   15.03862   -4.26430
       O   -13.19301   15.14002   -4.81614
      H1   -13.13371   14.33693   -5.36847
       H   -17.68955   16.78487   -1.98050
       O   -16.89658   17.26443   -1.69660
      H1   -16.57095   16.71985   -0.97006

