60
frame 2 | Written by MDAnalysis XYZWriter (release 2.4.3)
       H   -10.80967  -13.02320   -5.57009
       O   -11.23912  -12.17091   -5.70928
      H1   -12.14337  -12.40494   -5.97949
       H   -12.57281   -9.73313   -9.72181
       O   -12.28614  -10.62654   -9.48018
      H1   -11.93077  -10.96145  -10.29694
       H   -13.41917  -10.32641   -5.59002
       O   -13.22610   -9.58951   -4.97745
      H1   -13.23090   -9.96711   -4.09534
       H   -11.61619   -8.14219  -12.82472
       O   -11.60915   -8.79477  -12.10796
      H1   -10.66442   -8.82932  -11.80977
       H   -15.72052   -8.31307  -11.45908
       O   -15.92011   -9.19106  -11.85122
      H1   -15.07135   -9.65515  -11.74672
       H   -16.72349  -11.78905   -9.22665
       O   -15.94209  -11.81623   -8.70232
      H1   -15.30625  -12.04336   -9.34524
       H   -13.89194  -11.04714  -13.72726
       O   -13.90991  -11.43133  -12.83966
      H1   -14.66167  -12.03616  -12.90096
       H   -14.96469   -8.76657   -8.50149
       O   -15.60411   -9.22979   -7.98618
      H1   -15.58005  -10.12594   -8.35181
       H   -14.30835  -12.38170   -6.68476
       O   -13.71055  -11.61510   -6.67023
      H1   -14.02143  -11.06617   -7.41694
       H    -9.30863   -9.20249   -9.89923
       O    -9.16087   -9.38577  -10.83307
      H1    -8.42580  -10.04037  -10.83872
       H   -14.08202   -7.51393   -9.93368
       O   -13.89007   -8.33818  -10.38251
      H1   -13.10370   -8.12539  -10.88836
       H   -14.87129   -5.75817   -8.73056
       O   -15.00194   -6.50591   -8.11319
      H1   -14.17788   -6.52058   -7.58963
       H    -9.93325  -11.07253  -11.86482
       O   -10.30720  -11.30582  -12.73138
      H1   -11.09057  -10.73092  -12.75133
       H   -11.05702  -13.92477   -9.51676
       O   -11.02417  -13.18894  -10.13043
      H1   -11.48362  -13.45619  -10.90829
       H   -10.72267   -7.34738   -9.13377
       O   -10.18973   -7.16500   -9.90383
      H1   -10.86519   -7.01965  -10.57663
       H   -10.24125  -11.37407   -7.02697
       O    -9.97042  -11.36353   -7.96616
      H1   -10.68238  -11.79965   -8.36945
       H   -12.11782   -5.41513  -11.94436
       O   -12.48316   -6.21546  -11.54813
      H1   -13.19502   -6.39118  -12.16489
       H   -11.49278   -7.52828   -7.94443
       O   -12.09729   -6.82392   -8.19048
      H1   -11.88105   -6.07343   -7.60300
       H   -10.26932   -9.81079   -7.57231
       O   -10.07192   -8.86648   -7.56188
      H1    -9.10350   -8.80216   -7.44860
       H   -12.93176  -12.66199  -10.15255
       O   -13.83170  -12.99266  -10.18891
      H1   -13.91842  -13.29614  -11.09557

