60
frame 3 | Written by MDAnalysis XYZWriter (release 2.4.3)
       H     1.95570    0.26499    4.09010
       O     2.61747    0.81038    3.64057
      H1     2.83862    0.23965    2.89396
       H     1.20613    2.01807    5.74262
       O     0.62602    1.47388    6.26544
      H1     1.09950    1.51144    7.11020
       H     1.43650    2.71356   10.22345
       O     1.54005    3.57571    9.77866
      H1     0.65441    3.85233    9.55326
       H     0.85002    3.18044    3.86638
       O     1.64608    3.23355    4.43763
      H1     2.20712    2.46012    4.18438
       H    -1.29503    4.80182    8.23489
       O    -0.48670    4.43053    7.87889
      H1     0.07596    5.19183    7.72042
       H     3.95402    6.78551    8.63448
       O     3.09060    7.17000    8.51296
      H1     3.16798    7.93434    9.03006
       H     3.84907    3.41421   11.54905
       O     4.38002    2.59253   11.37512
      H1     4.56912    2.33955   12.27605
       H     0.47343    7.02622    6.65289
       O     0.63856    7.06644    7.59210
      H1     1.61212    7.17300    7.63052
       H     3.55770    8.08816    6.22297
       O     3.00854    7.66800    5.55505
      H1     2.70796    8.40423    5.05800
       H     2.23673    4.62775   12.81548
       O     2.74672    4.78377   12.01145
      H1     2.16254    4.47255   11.32636
       H     3.33274    5.99343    0.70189
       O     3.04146    6.13916    1.60289
      H1     3.37816    5.35074    2.07664
       H     3.78194    3.25459    2.67713
       O     4.39290    3.98566    2.77500
      H1     4.21467    4.32941    3.65422
       H    -1.06591    2.45940    6.18549
       O    -1.99017    2.51136    5.97500
      H1    -2.29465    1.71924    6.42322
       H     3.16619    4.22644    6.78026
       O     3.41095    3.88344    7.60576
      H1     2.65974    4.06305    8.20249
       H     4.14855    1.60055    9.74823
       O     3.84689    1.22844    8.92770
      H1     3.25383    1.91952    8.58609
       H     5.99053    5.45995    9.05813
       O     5.60676    5.90242    8.28296
      H1     4.91899    5.28492    7.94882
       H     1.51624    7.02367    4.91446
       O     0.54382    6.95196    4.79171
      H1     0.44758    6.16754    4.23553
       H     7.28981    4.04922    6.77245
       O     6.91269    4.75647    6.23546
      H1     6.39806    5.27038    6.85601
       H     1.62374    0.33850    9.29420
       O     1.20642   -0.05791    8.52299
      H1     0.25065    0.03443    8.58898
       H     5.38568    5.01465    5.49226
       O     4.46943    5.02394    5.21594
      H1     4.24680    5.95010    5.33067

