60
frame 3 | Written by MDAnalysis XYZWriter (release 2.4.3)
       H     8.86009   11.21702   12.20650
       O     9.46194   10.63283   12.71873
      H1    10.01024   11.30965   13.11165
       H     9.86071   11.58432   18.57506
       O    10.77602   11.82251   18.33717
      H1    11.29092   11.03790   18.55942
       H     6.18737    9.48034   18.78387
       O     6.06670    9.18682   17.87785
      H1     6.17231    9.95671   17.31477
       H    12.01507    8.74954   11.07635
       O    11.05721    8.71559   11.08355
      H1    10.78965    9.19202   11.88704
       H     7.89226   10.85310   18.93563
       O     8.02256   11.63876   18.38660
      H1     8.40907   11.28745   17.55934
       H     8.77015   10.67055   15.02727
       O     8.35521   10.57806   15.90572
      H1     8.40963    9.59802   15.98906
       H     8.83504    9.09387   13.29918
       O     8.52481    8.20533   13.52947
      H1     8.04714    7.90231   12.74950
       H     6.87889    8.61182   14.76817
       O     5.93373    8.56905   14.68729
      H1     5.63047    8.07169   15.47957
       H    10.18662    7.00720   13.33872
       O    10.45771    6.11746   13.51676
      H1    10.39116    5.72586   12.64532
       H     9.88791   15.17419   16.42322
       O     9.39651   14.42308   16.11238
      H1     8.88958   14.17413   16.89460
       H     4.88653   11.60291   13.68431
       O     5.73186   11.24275   13.99257
      H1     5.52959   10.28516   13.97981
       H     9.46569   14.64375   12.81593
       O    10.17771   14.06385   13.10431
      H1    10.68758   13.89230   12.29976
       H    11.72912   10.71317   14.51750
       O    11.85536    9.77177   14.27522
      H1    12.84175    9.73752   14.21043
       H     5.90967   13.30371   17.44079
       O     6.36444   14.06533   17.85017
      H1     6.32328   14.70832   17.11742
       H     6.69975   11.72945   16.97402
       O     5.77200   11.68476   16.73382
      H1     5.80214   11.63549   15.75987
       H     8.19675    8.21809   17.52328
       O     8.49958    7.76230   16.72260
      H1     9.44226    7.81807   16.77481
       H    11.32750    8.54891   15.66451
       O    11.22717    8.09371   16.52689
      H1    11.52348    7.18652   16.30644
       H    10.85716   13.07536   14.34467
       O    11.23943   12.43148   14.95126
      H1    10.71247   12.56743   15.76551
       H     8.25127   13.67801   14.70749
       O     7.45825   13.78795   14.16706
      H1     7.08606   12.91018   14.05987
       H     7.55120   12.09510   10.42843
       O     7.37094   11.92152   11.35895
      H1     6.43268   11.69635   11.28858

