60
frame 3 | Written by MDAnalysis XYZWriter (release 2.4.3)
       H     1.82546  -10.17719    2.47376
       O     2.21453  -11.06840    2.32735
      H1     1.75912  -11.55899    3.01844
       H    -0.30778   -6.34020    6.90279
       O    -0.35800   -7.29239    6.76627
      H1     0.33305   -7.43345    6.09760
       H     3.63109   -3.18377    3.86739
       O     2.73187   -3.52933    3.91071
      H1     2.85953   -4.48578    3.77411
       H     1.16087  -11.27683    1.06550
       O     0.48378  -11.29678    0.36969
      H1     0.89928  -11.77260   -0.35768
       H    -3.47012   -9.11538    2.69075
       O    -3.42668   -8.97233    3.65664
      H1    -2.92141   -8.16140    3.70023
       H     4.01836   -6.72344    4.05467
       O     3.23207   -6.38842    3.56608
      H1     3.13741   -6.96645    2.80419
       H    -2.12476   -9.99088    5.68001
       O    -1.45783  -10.65380    5.86221
      H1    -1.29552  -10.55484    6.79654
       H     2.46951   -7.36208    6.90409
       O     2.72873   -6.79819    7.63510
      H1     2.28096   -7.15394    8.42253
       H    -2.19737   -7.90121    6.86254
       O    -2.95508   -8.37234    7.23824
      H1    -3.14879   -7.94203    8.07652
       H    -2.31031   -5.79924    4.21085
       O    -2.78381   -6.43682    3.66695
      H1    -3.54168   -5.91886    3.37186
       H     1.29987   -8.62149    4.34007
       O     1.63491   -7.95007    4.91743
      H1     1.98777   -7.31690    4.32114
       H    -0.87328  -11.87718    4.31746
       O    -1.31725  -12.51411    3.75338
      H1    -2.15204  -12.62745    4.25869
       H     2.88573   -9.60074    5.86249
       O     3.80157   -9.62983    6.18304
      H1     3.96479  -10.52211    6.52313
       H     0.21198   -8.25698    2.19008
       O     0.35471   -9.21970    2.29327
      H1    -0.19774   -9.55731    1.59471
       H     4.08880  -10.63577    3.13087
       O     4.87079  -10.64847    3.70044
      H1     4.57697  -10.15371    4.49679
       H     4.29863   -7.36767    1.31146
       O     3.54701   -7.98079    1.38937
      H1     3.07972   -7.97209    0.54168
       H     4.64847   -9.88633    1.48156
       O     5.09824  -10.32037    0.74904
      H1     5.54466   -9.54332    0.32627
       H    -0.43768   -5.72047    1.28651
       O     0.02219   -6.59216    1.35892
      H1     0.86489   -6.45244    0.86918
       H     0.52433  -10.47953    5.49369
       O     1.36961  -10.73004    5.07090
      H1     1.65823  -11.49480    5.53558
       H    -1.23810   -9.86952    8.76315
       O    -0.38516  -10.28402    8.59281
      H1     0.18525   -9.56717    8.33543

