60
frame 2 | Written by MDAnalysis XYZWriter (release 2.4.3)
       H    -5.59600  -10.21871    9.40826
       O    -4.84444   -9.63051    9.55164
      H1    -5.12308   -8.87306    9.06531
       H    -2.09567   -9.32113    3.32356
       O    -2.73631   -9.22418    4.05267
      H1    -2.78753   -8.29289    4.09340
       H    -3.16246   -9.59635    5.78477
       O    -2.87462   -9.74665    6.68689
      H1    -3.30711  -10.59330    6.88555
       H    -2.48308   -6.09329    7.03668
       O    -3.36174   -6.22014    7.42513
      H1    -3.14620   -6.28596    8.36425
       H    -5.69463  -14.07387    5.82178
       O    -4.84892  -14.54667    5.93588
      H1    -4.84721  -14.75656    6.89238
       H    -1.99687   -8.96809   11.89581
       O    -2.22234   -9.70273   11.34145
      H1    -1.56443   -9.66375   10.60060
       H     0.44122   -8.90466    6.08888
       O     0.77572   -7.99265    6.26628
      H1     1.13781   -7.69828    5.41975
       H    -0.61809  -11.40006    3.85199
       O    -1.00341  -12.26358    3.55524
      H1    -1.39158  -12.76105    4.29298
       H    -5.95304   -7.80879    6.64807
       O    -5.41270   -8.06408    7.43650
      H1    -4.71811   -7.37744    7.40441
       H    -1.20394  -11.78169    8.22266
       O    -0.67522  -12.36177    7.66683
      H1    -1.29070  -13.05465    7.37996
       H    -6.34525  -13.63289    2.82181
       O    -6.45869  -13.11265    3.61484
      H1    -5.63316  -12.63389    3.69044
       H    -1.70126  -14.92754    9.98209
       O    -1.81842  -14.46669    9.14339
      H1    -2.14852  -13.61315    9.42652
       H    -3.18215  -13.67084    5.64425
       O    -2.23725  -13.65005    5.53431
      H1    -2.04409  -14.45499    5.08026
       H    -6.93524   -7.96006    8.32324
       O    -7.58236   -8.33374    8.92128
      H1    -8.11723   -7.54621    9.19054
       H    -3.61687  -11.38309    8.60647
       O    -3.64433  -12.22348    8.12782
      H1    -4.58826  -12.31783    7.92251
       H    -5.56207   -9.97741    6.95979
       O    -5.80028  -10.89397    6.71863
      H1    -6.76214  -10.93231    6.82923
       H    -3.35949   -8.20277   10.10186
       O    -3.28136   -7.21760   10.14178
      H1    -2.34123   -7.01734   10.26424
       H    -1.03294  -10.30215    5.51882
       O    -0.06839  -10.49989    5.54828
      H1    -0.05322  -11.20610    6.18601
       H    -1.59031   -9.45076    8.14161
       O    -1.15944   -9.74482    8.97206
      H1    -0.22142   -9.67678    8.73668
       H    -6.20521  -10.65440    4.25477
       O    -5.52619  -10.47500    3.59744
      H1    -4.79170  -10.27835    4.18117

