60
frame 3 | Written by MDAnalysis XYZWriter (release 2.4.3)
       H     9.90692   -5.45018   14.08080
       O     9.87918   -5.31977   13.11556
      H1    10.28707   -4.44350   13.01824
       H    10.59157   -6.81161   12.51530
       O    11.00349   -7.67678   12.62547
      H1    11.56123   -7.46809   13.40018
       H    14.48710   -3.81424    8.40675
       O    14.69945   -4.61130    8.93978
      H1    15.20357   -5.09813    8.28827
       H    10.63753   -9.45833   12.85060
       O    10.76468  -10.40911   12.97563
      H1     9.86934  -10.76918   13.01584
       H     9.78335   -4.50155   10.86715
       O    10.45285   -4.69453   10.20662
      H1    10.63082   -5.62699   10.30618
       H    11.41269   -8.28498    8.37571
       O    11.86353   -9.03931    7.94147
      H1    12.71127   -9.10384    8.37699
       H     7.33066   -3.00324   11.50406
       O     8.12990   -3.53521   11.65768
      H1     7.81037   -4.40168   11.83467
       H    12.24495   -4.47609    7.87273
       O    12.02859   -4.79573    6.96169
      H1    12.87206   -4.64231    6.46766
       H     9.37009   -7.76628    5.96505
       O     8.48461   -7.62630    6.35952
      H1     8.68528   -7.03202    7.12290
       H    12.05746   -3.51253   12.51799
       O    11.22721   -3.00895   12.60773
      H1    11.21622   -2.27409   12.00491
       H    13.30878  -10.25244   10.35894
       O    13.61298   -9.45894    9.88341
      H1    13.74922   -8.84893   10.60129
       H     8.08355   -5.05815    8.10308
       O     8.41037   -5.81290    8.64221
      H1     9.22191   -5.51929    9.04807
       H    11.78133   -7.34795   10.21460
       O    10.96642   -7.32436    9.74925
      H1    10.49203   -7.97461   10.25664
       H     7.52916   -6.13839   10.42748
       O     7.69197   -6.45412   11.31772
      H1     6.89447   -6.26471   11.81521
       H    11.62290   -2.61260    9.28648
       O    12.50522   -2.45614    8.94957
      H1    12.88605   -1.80825    9.54264
       H    13.09678   -4.06905   10.68059
       O    13.58268   -4.19177   11.49052
      H1    14.12847   -3.40929   11.58939
       H     8.60640   -8.03247   10.95477
       O     8.94251   -8.89442   10.62163
      H1     8.85248   -9.46778   11.39458
       H    13.88855   -6.13688   11.23700
       O    14.00451   -7.01999   10.84511
      H1    14.50576   -6.86063   10.03307
       H    11.52360   -6.49103    6.36766
       O    11.32249   -7.35409    5.96933
      H1    11.67442   -7.96070    6.64268
       H     9.05552   -1.23822   10.06267
       O     9.41944   -2.00054    9.61711
      H1     8.79219   -2.71492    9.78473

