60
frame 2 | Written by MDAnalysis XYZWriter (release 2.4.3)
       H   -16.62995  -17.63508    0.99607
       O   -16.75219  -17.19347    1.85548
      H1   -17.70263  -16.92737    1.81654
       H   -12.18730  -17.81908   -5.07419
       O   -11.59611  -18.51360   -5.37273
      H1   -12.18101  -19.10661   -5.87078
       H   -11.72589  -15.30181   -3.15065
       O   -10.79535  -15.29491   -2.88654
      H1   -10.68577  -14.42615   -2.51546
       H   -16.53019  -19.11884   -1.02602
       O   -16.11862  -18.33964   -0.67264
      H1   -16.56338  -17.61658   -1.12606
       H   -14.42949  -18.14048   -0.08097
       O   -13.53786  -17.74722   -0.11722
      H1   -13.26995  -17.68226    0.79508
       H   -13.51195  -14.38782    0.43329
       O   -12.54420  -14.30560    0.49779
      H1   -12.32625  -14.84490   -0.29948
       H   -17.07532  -19.30819   -2.91673
       O   -17.31902  -18.68243   -3.64474
      H1   -16.44978  -18.43645   -4.05428
       H   -12.42341  -17.54060    3.45324
       O   -12.92327  -17.57091    2.63509
      H1   -12.82244  -18.47514    2.37662
       H   -10.59677  -14.11525    3.18636
       O   -11.48603  -14.53152    3.18779
      H1   -11.81093  -14.47277    2.27081
       H    -8.58130  -16.43878   -1.77890
       O    -7.77272  -16.22929   -2.26988
      H1    -7.40061  -17.07283   -2.61964
       H   -11.47320  -12.53672   -1.96661
       O   -10.91916  -12.90079   -1.26569
      H1   -11.52218  -13.17702   -0.54526
       H   -17.87796  -15.03935   -1.20246
       O   -17.01657  -15.49165   -1.40742
      H1   -16.37881  -14.87324   -1.03020
       H   -10.12857  -15.24067   -4.80266
       O   -10.18492  -15.03012   -5.74662
      H1    -9.27480  -15.06324   -6.09592
       H   -14.17231  -15.01157   -2.90939
       O   -13.91582  -14.14143   -3.18379
      H1   -14.22570  -13.62560   -2.40732
       H   -13.50202  -17.04599   -1.58463
       O   -13.50127  -16.81860   -2.53601
      H1   -13.85901  -17.63728   -2.89159
       H   -17.19199  -14.58694   -3.18849
       O   -17.52302  -14.26082   -4.01772
      H1   -18.48336  -14.31813   -3.92758
       H   -14.34717  -19.17193   -4.74026
       O   -14.64711  -18.36041   -4.30184
      H1   -14.61510  -17.68515   -4.96812
       H   -15.77713  -13.49246    0.62218
       O   -15.31837  -14.27929    0.33006
      H1   -15.56534  -14.95079    0.96786
       H   -10.05470  -17.17304    0.68298
       O    -9.55576  -17.28487    1.50771
      H1   -10.24800  -17.25580    2.19268
       H    -9.51281  -18.22392   -1.53627
       O    -9.93523  -17.43611   -1.20350
      H1   -10.45871  -17.15870   -1.92132

