60
frame 3 | Written by MDAnalysis XYZWriter (release 2.4.3)
       H    -3.50255    1.30176   -3.35497
       O    -3.81842    2.18997   -3.18698
      H1    -3.09754    2.55312   -2.66150
       H    -1.42824    4.14031    2.44864
       O    -0.99342    4.20336    3.30490
      H1    -1.62718    4.60247    3.91592
       H    -6.07275   -3.00356   -2.51274
       O    -5.76677   -2.24253   -3.00864
      H1    -4.88023   -2.05517   -2.64216
       H    -6.34549   -0.60324    2.22797
       O    -5.49861   -1.08100    2.43026
      H1    -5.65285   -1.47567    3.29716
       H    -4.55912    2.37123    2.65672
       O    -5.02662    3.09301    2.20639
      H1    -5.04779    2.87782    1.27646
       H    -7.26098    0.24047   -1.16549
       O    -6.81572    0.15020   -0.28905
      H1    -6.49978   -0.76963   -0.32203
       H    -1.31797    2.47488   -1.51459
       O    -1.94641    3.22427   -1.46268
      H1    -2.21091    3.30178   -0.53513
       H    -1.82883   -0.67998   -3.99200
       O    -1.52209   -1.06609   -3.17456
      H1    -2.30881   -1.24450   -2.64612
       H    -3.53486   -1.21353   -1.29643
       O    -3.43532   -2.12627   -1.65966
      H1    -4.06235   -2.56716   -1.08556
       H    -0.22759    0.66246    2.04491
       O    -0.25424    1.55692    1.72003
      H1    -0.71363    2.03971    2.40128
       H    -0.53873    4.21417   -1.44879
       O     0.39200    4.50132   -1.34606
      H1     0.38536    5.11828   -0.57449
       H    -6.65442   -2.65126   -0.14190
       O    -5.78443   -2.26604   -0.14332
      H1    -5.63785   -2.09605    0.79428
       H    -2.76005    4.54391    0.99305
       O    -2.44865    3.62702    1.14094
      H1    -3.22143    3.20205    1.49862
       H    -2.52640   -0.02868    0.67886
       O    -2.98941    0.20151   -0.13204
      H1    -3.39115    1.06925    0.04356
       H    -0.62221   -2.61572    1.49743
       O    -0.80285   -2.15443    0.67893
      H1    -0.88056   -2.88327    0.01264
       H    -6.96023    2.61837    2.24659
       O    -7.77753    2.09054    2.22834
      H1    -8.04286    2.07608    1.31512
       H    -4.95066    2.92171   -1.21420
       O    -4.93062    2.36638   -0.38992
      H1    -5.49325    1.61345   -0.60420
       H    -2.74683    0.42821    3.13740
       O    -3.49507    0.82943    2.66545
      H1    -4.13315    0.09172    2.63922
       H    -2.74211   -2.82436    3.37326
       O    -2.71605   -3.11123    2.46818
      H1    -2.35114   -2.32996    2.01730
       H    -1.54287    0.70840   -0.88761
       O    -0.83056    0.85051   -1.53105
      H1    -1.06465    0.26172   -2.28095

