60
frame 3 | Written by MDAnalysis XYZWriter (release 2.4.3)
       H     8.14439    6.78656    8.91708
       O     8.31703    6.12891    9.60651
      H1     7.91747    6.53698   10.41140
       H     8.63682    7.37249    4.22060
       O     9.27307    7.12303    4.92182
      H1     8.98402    6.20709    5.05717
       H    10.07449    6.16773   10.11036
       O    10.94781    6.03868   10.54240
      H1    11.16367    6.93749   10.84356
       H     3.95402    6.78551    8.63448
       O     3.09060    7.17000    8.51296
      H1     3.16798    7.93434    9.03006
       H     6.70262    9.99616    4.06175
       O     6.36677    9.53315    4.84906
      H1     7.07877    9.58823    5.50510
       H    12.01507    8.74954   11.07635
       O    11.05721    8.71559   11.08355
      H1    10.78965    9.19202   11.88704
       H     8.37151    9.52153    7.13601
       O     8.63855    9.60540    6.19718
      H1     8.76835    8.68913    5.91061
       H     6.02734    4.78423   12.25667
       O     6.53798    4.24672   11.62271
      H1     5.85170    3.67455   11.29460
       H     8.83504    9.09387   13.29918
       O     8.52481    8.20533   13.52947
      H1     8.04714    7.90231   12.74950
       H    10.18662    7.00720   13.33872
       O    10.45771    6.11746   13.51676
      H1    10.39116    5.72586   12.64532
       H    12.87735    6.69477    8.28203
       O    12.80743    5.71872    8.34559
      H1    11.90315    5.69608    8.76968
       H     5.91390    7.74691   11.68791
       O     6.83834    7.78355   11.38116
      H1     6.82315    8.25158   10.55349
       H    10.16500    9.68571    9.50537
       O     9.42476    9.83958    8.92875
      H1     9.38412   10.79714    8.91434
       H     5.99053    5.45995    9.05813
       O     5.60676    5.90242    8.28296
      H1     4.91899    5.28492    7.94882
       H    11.23415    4.36504   11.45238
       O    11.17460    3.48191   11.76473
      H1    10.69203    3.00186   11.08371
       H    11.11918    3.88334    5.57802
       O    10.20975    3.68973    5.41967
      H1     9.83530    3.47506    6.30197
       H     5.07514    8.74779    6.74907
       O     4.70873    9.41663    7.33937
      H1     5.09987   10.22430    7.01745
       H     7.28981    4.04922    6.77245
       O     6.91269    4.75647    6.23546
      H1     6.39806    5.27038    6.85601
       H     7.45021    9.40784    9.14078
       O     6.91286    8.73441    8.68967
      H1     6.03028    9.17554    8.68274
       H     8.42221    4.26251    8.77016
       O     8.60514    3.71626    8.03530
      H1     9.20013    3.09604    8.46910

