60
frame 2 | Written by MDAnalysis XYZWriter (release 2.4.3)
       H    13.65925  -13.35556  -11.54471
       O    14.36589  -13.00728  -10.99198
      H1    15.16726  -13.09388  -11.50869
       H    14.12338  -16.90412  -15.77753
       O    13.32618  -17.37035  -16.06258
      H1    12.59313  -16.80518  -15.75108
       H     7.87371  -18.30097  -12.46723
       O     7.44356  -19.11197  -12.76152
      H1     6.53645  -18.89514  -12.95005
       H    12.33074  -18.20418  -10.29337
       O    12.11619  -17.40004  -10.74795
      H1    11.83737  -17.78658  -11.62403
       H    11.80745  -13.34273  -16.82388
       O    11.39819  -14.21356  -16.94700
      H1    10.53952  -14.11546  -16.54719
       H    13.01113  -14.99801  -17.49751
       O    13.80804  -15.26442  -17.98375
      H1    14.15750  -16.03653  -17.51939
       H     7.21864  -13.92456  -12.37775
       O     8.02881  -13.69870  -11.88087
      H1     7.97002  -12.74307  -11.83865
       H     8.04618  -14.57826  -10.13921
       O     7.98126  -14.89559   -9.23555
      H1     8.86888  -15.25554   -9.04181
       H     8.95515  -12.36596  -15.21219
       O     8.56385  -11.75040  -15.82694
      H1     8.56037  -10.88561  -15.37228
       H     8.84194  -16.47281  -12.19562
       O     8.36551  -17.00414  -11.51827
      H1     8.99700  -16.97079  -10.78115
       H    10.41395  -17.39867  -16.02966
       O    10.81493  -16.86669  -15.31357
      H1    10.90754  -17.51746  -14.60655
       H    12.07748  -14.25888  -10.87876
       O    12.01222  -14.68678  -10.00723
      H1    12.19951  -15.61657  -10.16028
       H    13.78370  -13.85638  -14.66225
       O    13.50427  -14.59571  -14.06106
      H1    14.31218  -14.83475  -13.60642
       H     8.04478  -14.40684  -16.52488
       O     8.74989  -14.77357  -15.95431
      H1     8.37743  -15.56423  -15.54879
       H    11.89517  -18.92363  -13.53213
       O    11.06225  -18.48364  -13.27942
      H1    10.56165  -19.18494  -12.81762
       H    12.74274  -13.45341  -12.97083
       O    12.02252  -13.28146  -12.33115
      H1    11.38018  -13.97335  -12.44834
       H    10.43746  -15.47454  -13.83310
       O    10.12670  -15.26145  -12.93599
      H1     9.48411  -14.57428  -12.96836
       H    11.96861  -10.41841  -13.23288
       O    11.10893  -10.53391  -12.86222
      H1    11.13989  -11.43185  -12.53370
       H     5.72031  -15.02740  -12.14205
       O     6.27750  -15.70376  -12.55049
      H1     6.93521  -15.94447  -11.92349
       H    10.67211  -17.62388   -9.71475
       O     9.88552  -17.31520   -9.26782
      H1     9.36523  -18.10273   -8.99467

