60
frame 0 | Written by MDAnalysis XYZWriter (release 2.4.3)
       H     5.71582   -7.79747   -8.23510
       O     6.50787   -7.37726   -7.84047
      H1     6.12037   -6.86629   -7.08806
       H     4.66492   -2.29227   -4.13789
       O     4.08890   -3.00815   -3.84827
      H1     3.93872   -3.44913   -4.68114
       H     3.69528   -8.23188   -7.28310
       O     3.89126   -7.92837   -8.18738
      H1     3.80468   -6.97017   -8.16290
       H     4.92477   -0.97809   -9.05698
       O     4.42183   -1.06697   -9.86947
      H1     3.75365   -1.72976   -9.63516
       H     4.95568   -6.46673  -10.59952
       O     4.76771   -5.49940  -10.72253
      H1     4.55904   -5.16725   -9.81703
       H     6.36515   -2.34936  -12.48103
       O     6.35254   -1.54123  -11.96473
      H1     5.64756   -1.69353  -11.32974
       H     8.97868   -7.37057   -8.85245
       O     9.52567   -6.57538   -8.98184
      H1     8.77633   -5.90828   -9.08641
       H     4.52314   -4.34866   -7.58836
       O     3.90791   -4.86832   -8.12371
      H1     3.28559   -5.15184   -7.46214
       H     5.69512   -1.82016   -5.46368
       O     6.15389   -1.47182   -4.68716
      H1     5.89526   -0.55977   -4.67924
       H     6.57700   -5.73744   -8.99140
       O     7.17278   -5.02090   -9.18573
      H1     6.82005   -4.79543  -10.07407
       H     6.81473   -3.65994   -7.67541
       O     6.07141   -3.48869   -7.07334
      H1     6.11620   -4.10333   -6.31272
       H     1.51823    0.10853   -6.70014
       O     2.08363   -0.44483   -6.18198
      H1     2.84419   -0.57308   -6.73058
       H     5.92201   -0.22366   -7.17660
       O     5.24280   -0.90240   -7.30270
      H1     5.75829   -1.69855   -7.41227
       H     8.06027   -1.31680   -4.97542
       O     8.79783   -0.74614   -5.25043
      H1     9.38706   -1.39742   -5.66888
       H     7.35794   -5.74835   -5.57559
       O     6.39682   -5.79919   -5.58868
      H1     6.17740   -6.01144   -4.66995
       H     8.14412   -1.13692   -8.69799
       O     8.37039   -1.54502   -7.83409
      H1     8.32020   -0.82993   -7.19511
       H     1.35380   -2.48424   -8.99529
       O     2.31476   -2.52760   -8.97652
      H1     2.54200   -3.41741   -8.67419
       H     1.96914   -4.55651   -5.72481
       O     2.88165   -4.72200   -5.48592
      H1     2.81158   -5.64947   -5.20012
       H     9.99591   -1.93723   -8.58866
       O    10.71275   -2.43607   -8.97539
      H1    10.73172   -3.21272   -8.42313
       H     9.77562   -5.34648   -6.30094
       O     9.24617   -5.54358   -5.50511
      H1     9.33213   -4.69458   -5.06400

