60
frame 2 | Written by MDAnalysis XYZWriter (release 2.4.3)
       H    16.44984   -0.31559  -10.39661
       O    16.49392    0.59447  -10.14342
      H1    15.69454    0.80338   -9.63817
       H    15.62289   -3.33586  -14.53177
       O    16.04599   -3.46436  -13.67169
      H1    15.34037   -3.77938  -13.13227
       H    16.73410  -10.91324   -8.05255
       O    17.10001  -10.07702   -8.36490
      H1    17.49342   -9.65113   -7.58075
       H    17.44789   -3.50478   -7.48155
       O    17.17611   -4.44122   -7.62423
      H1    17.43694   -4.59631   -8.55246
       H    14.20404   -6.22653  -12.71383
       O    13.83793   -5.34544  -12.88696
      H1    14.00529   -4.89287  -12.04364
       H    14.05029   -2.53700  -11.45562
       O    14.60312   -3.28161  -11.18964
      H1    15.50011   -2.93200  -11.08323
       H    18.72478    0.73344   -7.62043
       O    17.76534    0.71592   -7.74877
      H1    17.63051    0.48119   -8.67298
       H    16.36993   -6.81496   -7.51717
       O    16.04451   -7.40543   -6.85203
      H1    15.09418   -7.22850   -6.79634
       H    17.51950   -1.03482   -7.08572
       O    17.58510   -1.90338   -6.70417
      H1    18.41107   -1.89860   -6.20259
       H    17.04936   -6.02905  -11.70621
       O    17.62162   -6.44611  -12.38413
      H1    18.31070   -6.85353  -11.81200
       H    17.42073   -1.75867  -11.91529
       O    17.02116   -1.86392  -11.04750
      H1    17.73203   -2.06497  -10.50140
       H    15.50912   -7.15378   -9.80912
       O    15.73199   -6.21812   -9.76530
      H1    14.92791   -5.78753   -9.40676
       H    11.79065   -2.46076   -6.65094
       O    12.64051   -2.24335   -7.10748
      H1    12.85809   -3.11142   -7.48066
       H    14.29347   -2.43453   -5.72010
       O    15.15127   -2.68413   -5.36629
      H1    15.78797   -2.43048   -6.04497
       H    14.40230   -3.76560   -9.57150
       O    14.40518   -4.14411   -8.66440
      H1    15.36814   -4.21073   -8.48241
       H    11.21371   -5.13786   -5.69861
       O    11.60098   -4.91840   -6.53233
      H1    12.43471   -5.37263   -6.50424
       H    14.78282   -9.57457   -9.84654
       O    15.35619   -8.85076  -10.11130
      H1    16.25464   -9.15968   -9.85673
       H    13.43471   -7.39847   -5.59061
       O    13.33647   -6.97408   -6.44416
      H1    12.55558   -7.40647   -6.81613
       H    17.86944   -5.68982   -6.33403
       O    18.53974   -6.30424   -5.94243
      H1    17.97727   -7.05513   -5.61374
       H    14.96289   -6.34806   -4.54949
       O    14.60732   -5.47320   -4.47659
      H1    15.07089   -4.94402   -5.12713

