60
frame 3 | Written by MDAnalysis XYZWriter (release 2.4.3)
       H     0.94568   18.33575    2.17712
       O    -0.03199   18.50477    2.24100
      H1    -0.07331   19.28864    2.80439
       H     4.84378   16.20173    7.15969
       O     4.43752   16.38977    6.30402
      H1     4.09094   15.52608    5.99731
       H     5.53300   18.39374    4.66958
       O     6.33265   18.01287    5.04176
      H1     6.02361   17.20515    5.47618
       H     7.18906   17.34233    3.65251
       O     7.51023   17.17750    2.77094
      H1     6.74331   16.83549    2.27114
       H     5.49365   13.84149    3.28705
       O     5.98735   13.52053    2.49873
      H1     6.91887   13.60298    2.73660
       H     3.76705   13.23994    3.93955
       O     3.92184   14.19698    4.00245
      H1     3.38683   14.53986    3.30302
       H     5.46037   17.47117   -0.96884
       O     6.16447   17.58014   -1.61141
      H1     6.86112   17.99421   -1.06191
       H     3.43060   17.81490    6.84138
       O     3.01096   18.63143    7.11183
      H1     2.57283   18.38414    7.92805
       H    -1.20129   16.04717    1.27752
       O    -0.40517   16.31657    0.78660
      H1    -0.13990   17.05541    1.30065
       H     5.66902   15.23559    1.89089
       O     5.44685   16.03675    1.39017
      H1     5.00779   15.71784    0.59500
       H    -0.07724   12.90693    2.17857
       O    -0.74933   13.61329    2.05391
      H1    -0.83831   13.94637    2.96679
       H    -0.57407   14.74654    5.05625
       O    -1.55062   14.76842    5.01938
      H1    -1.77486   14.34560    5.86996
       H    -0.38648   14.31554   -1.61478
       O     0.45323   14.40094   -1.18993
      H1     0.39192   14.97935   -0.42685
       H    -1.75886   17.60859    5.39724
       O    -2.00181   18.05419    4.54352
      H1    -1.27747   17.78775    3.96712
       H     1.59229   13.74951    5.70449
       O     0.84805   13.16330    6.02471
      H1     0.69502   12.52930    5.30635
       H     1.40866   14.85343    1.97498
       O     2.28766   14.61199    1.63960
      H1     2.46885   15.20848    0.91730
       H     1.63616   16.62407    4.21841
       O     0.96170   16.11870    4.69498
      H1     0.79287   16.65406    5.46075
       H     2.79648   17.11181   -0.68786
       O     3.18570   16.25589   -0.78461
      H1     2.68350   15.84121   -1.48998
       H     3.16194   18.09587    2.76269
       O     2.46348   17.45121    2.56478
      H1     2.91080   16.76414    2.05576
       H    -0.97037   17.08229   -0.81708
       O    -1.46379   17.43572   -1.58014
      H1    -2.30333   16.95237   -1.58947

