60
frame 2 | Written by MDAnalysis XYZWriter (release 2.4.3)
       H   -11.49211    2.69429   11.86139
       O   -11.57973    2.94973   12.75620
      H1   -12.22717    2.33548   13.11143
       H    -9.72233    4.14071    9.79352
       O    -8.89696    4.53396    9.45404
      H1    -8.94461    5.47804    9.72394
       H    -9.30843    8.26375   11.66324
       O    -8.77081    8.99093   12.01537
      H1    -8.97854    8.99299   12.92633
       H   -14.97090    2.20797   12.23348
       O   -15.66307    1.93450   12.85656
      H1   -15.54185    0.97711   12.84747
       H   -10.51164    7.01608    9.85884
       O    -9.80572    6.91623   10.50721
      H1   -10.13996    6.33857   11.20449
       H   -14.24594    1.85924   14.10240
       O   -13.36786    1.66074   14.38117
      H1   -13.51655    0.86717   14.87264
       H   -10.24309    8.64759   15.52371
       O   -10.31222    8.15638   14.70009
      H1   -11.24415    8.23318   14.51370
       H   -11.31027    4.73155   12.55600
       O   -10.75878    5.51061   12.65246
      H1   -10.10112    5.25166   13.30540
       H   -13.41889    4.78913   15.17994
       O   -13.84976    4.01128   15.58653
      H1   -13.29742    3.27074   15.20530
       H   -13.38081    8.93937   10.29044
       O   -13.06715    8.34498   10.98886
      H1   -13.42104    8.81651   11.80134
       H    -9.47785    3.23395   16.35468
       O    -9.86239    3.83232   15.71805
      H1    -9.42447    4.66431   15.89212
       H    -9.23651    7.07046   15.77744
       O    -8.65717    6.33304   16.02374
      H1    -8.38594    6.51105   16.93322
       H   -14.66911    7.50640   13.70499
       O   -15.43025    7.84015   13.19735
      H1   -16.15942    8.08056   13.75231
       H   -12.60424    6.54756   15.20712
       O   -12.85890    6.34511   14.32144
      H1   -12.06254    6.08371   13.80670
       H   -13.02678    3.63940   11.21683
       O   -13.89760    3.23285   11.12114
      H1   -14.46054    3.99055   11.04482
       H   -11.67617    3.86755    9.41780
       O   -11.20070    3.33229   10.03444
      H1   -11.59525    2.47972    9.85370
       H    -8.85511    2.70395   10.79409
       O    -8.67542    1.83157   11.13652
      H1    -7.70911    1.72305   11.09795
       H    -7.56564    3.90864   12.65051
       O    -8.17241    4.19270   13.35863
      H1    -8.49415    3.34436   13.69780
       H    -9.80074    2.17261   14.48206
       O    -9.11189    1.67468   13.98470
      H1    -9.32452    1.84515   13.04638
       H   -15.36546    6.21761   10.80242
       O   -14.45109    6.07506   10.49611
      H1   -13.98697    6.88982   10.78981

