60
frame 0 | Written by MDAnalysis XYZWriter (release 2.4.3)
       H   -12.53815    2.46938    9.84560
       O   -11.91238    1.74602    9.94189
      H1   -12.46957    1.12074   10.45911
       H    -9.37303   -0.07404    9.21462
       O    -9.77869   -0.23696    8.37436
      H1   -10.54931    0.36112    8.49498
       H   -13.96865   -6.41864   10.19317
       O   -14.22530   -5.56264    9.82825
      H1   -14.45929   -5.78920    8.90716
       H   -16.93963   -1.63919    9.37348
       O   -16.58645   -2.43487    9.76689
      H1   -17.33591   -2.90738   10.09474
       H   -11.74652   -2.88758   12.23777
       O   -11.40291   -2.24100   11.63460
      H1   -11.89820   -2.38788   10.81571
       H    -8.59060   -2.63667   10.03693
       O    -8.60055   -2.53774   11.02040
      H1    -9.52742   -2.41755   11.23404
       H   -12.51912   -0.66723   12.17408
       O   -13.14087    0.02984   11.92181
      H1   -13.27570    0.56070   12.72856
       H    -7.52303   -1.22146   13.30835
       O    -8.40724   -0.94533   13.57929
      H1    -8.25749   -0.53563   14.42636
       H    -7.68048   -5.24642    9.69533
       O    -8.25680   -5.39191   10.44905
      H1    -8.33204   -4.53841   10.91388
       H    -8.87813   -0.19925   11.65180
       O    -8.63555    0.56430   11.07323
      H1    -7.72413    0.37444   10.75895
       H   -11.09964   -5.96090   11.01559
       O   -10.94331   -5.71760   10.07815
      H1   -10.01742   -5.92761    9.93211
       H   -11.54298   -5.13689    6.60418
       O   -11.49775   -4.20291    6.82430
      H1   -11.97761   -4.10546    7.65222
       H   -12.40965   -4.05790   14.47718
       O   -12.39598   -4.06081   13.50344
      H1   -13.35420   -4.10059   13.28687
       H   -15.49857   -3.11561   12.95702
       O   -15.01348   -3.95555   12.87492
      H1   -15.64208   -4.47787   12.33120
       H   -11.92080   -7.08080   13.18235
       O   -11.34588   -6.43457   12.74986
      H1   -11.73608   -5.58799   12.95109
       H   -12.73074    2.15672    7.17862
       O   -12.80440    1.21043    7.35790
      H1   -12.78082    1.21754    8.31425
       H   -12.03669   -4.05548    9.82375
       O   -12.58681   -3.43615    9.34043
      H1   -13.47233   -3.82210    9.35385
       H   -14.77560   -0.78227   11.73608
       O   -15.63427   -1.12737   12.01931
      H1   -15.89534   -1.70860   11.27291
       H   -15.17276   -0.04806    8.70020
       O   -15.54376    0.56431    9.35208
      H1   -16.04962    1.18047    8.81356
       H    -9.89198   -2.06634    8.05827
       O    -9.42911   -2.89026    7.94662
      H1   -10.11729   -3.46620    7.60587

