60
frame 5 | Written by MDAnalysis XYZWriter (release 2.4.3)
       H    15.92829  -10.71708  -16.15022
       O    16.92109  -10.74242  -16.21283
      H1    17.26598   -9.97497  -15.73416
       H     9.81730   -8.53074  -17.21317
       O     9.86571   -8.86289  -18.13656
      H1    10.01850   -8.02422  -18.57502
       H    15.63608   -6.50941  -20.18488
       O    16.35331   -6.93581  -19.71802
      H1    16.12105   -7.07965  -18.74485
       H    15.11293   -6.32789  -14.56954
       O    14.48578   -6.40744  -15.28450
      H1    13.80309   -7.02331  -14.95951
       H     9.73247  -13.31181  -17.66920
       O     9.41603  -12.60125  -18.26871
      H1     8.48271  -12.70711  -18.35262
       H    11.91530   -5.87763  -14.88462
       O    11.33986   -6.01324  -15.63108
      H1    10.57814   -6.51680  -15.26113
       H    11.69495   -9.21898  -18.59109
       O    12.50155   -9.66128  -18.37536
      H1    13.15223   -9.30117  -19.04007
       H    14.97553  -13.19625  -18.71567
       O    15.58384  -13.91088  -18.99100
      H1    15.34213  -14.66544  -18.44575
       H    12.30861  -13.02197  -17.50337
       O    13.08451  -12.43473  -17.74724
      H1    12.65644  -11.55248  -17.94666
       H    11.96135  -14.12162  -19.58762
       O    11.88845  -14.85035  -18.96105
      H1    12.68718  -14.73127  -18.40992
       H     7.63570   -9.72393  -16.67524
       O     7.82072  -10.63797  -16.78152
      H1     8.55280  -10.71444  -17.42846
       H    14.58994   -9.66515  -13.89287
       O    14.41570  -10.04382  -13.01513
      H1    13.89700  -10.86679  -13.14345
       H    12.92881  -12.06501  -14.71619
       O    13.52102  -12.72966  -14.27613
      H1    14.26168  -12.84851  -14.89113
       H    12.93955   -7.22159  -13.21216
       O    12.61733   -8.03922  -13.67500
      H1    13.10859   -8.72358  -13.22751
       H     9.63675   -8.92108  -14.60460
       O     9.38940   -8.18477  -15.23463
      H1     8.47968   -7.98958  -15.08552
       H    13.54264   -9.86505  -15.60104
       O    14.43815   -9.74357  -15.74389
      H1    14.43561   -8.91365  -16.26068
       H    16.72902   -7.05372  -17.02557
       O    15.91869   -7.56871  -17.17695
      H1    15.26325   -7.03021  -16.67455
       H    18.24769  -10.66110  -17.46461
       O    18.86080  -10.64766  -18.21184
      H1    19.54195  -11.28714  -17.98354
       H    10.83153  -11.23004  -14.90977
       O    11.70030  -11.12046  -15.28084
      H1    11.64248  -11.20757  -16.19610
       H    11.33278   -5.38835  -18.64854
       O    11.97508   -4.68384  -18.27931
      H1    12.06871   -5.06768  -17.37555

