60
frame 2 | Written by MDAnalysis XYZWriter (release 2.4.3)
       H     9.81838   -8.08274   14.12488
       O    10.77401   -8.25380   14.08489
      H1    11.05378   -7.78432   14.87930
       H    14.17174   -1.29431   18.54479
       O    13.99615   -2.23356   18.37444
      H1    13.14411   -2.42114   18.78621
       H    10.42487   -5.85221   11.21798
       O    10.05856   -5.81804   12.12280
      H1    10.77399   -6.13974   12.66642
       H    11.84307   -6.93670   17.94495
       O    11.94350   -6.94686   18.91721
      H1    12.17719   -6.03833   19.12478
       H    16.62881   -3.93913   17.91347
       O    16.41505   -4.76804   17.48315
      H1    15.79382   -5.20271   18.13121
       H    13.71605   -3.83102   16.92914
       O    13.25292   -4.28309   16.21740
      H1    13.92857   -4.94615   15.92322
       H    10.30152   -2.95176   19.22307
       O    10.76161   -3.60266   18.66953
      H1    10.03059   -4.11020   18.33204
       H     9.03222   -9.79981   17.95868
       O     9.12890   -9.33702   17.13191
      H1     9.57819   -9.99635   16.57246
       H    15.38209   -8.82589   14.81048
       O    14.51573   -9.09150   15.11637
      H1    14.02041   -9.37832   14.34006
       H     7.42487   -8.72095   18.09481
       O     7.44843   -8.56205   19.06449
      H1     6.76092   -7.87457   19.15366
       H    10.77960   -6.34688   16.70771
       O    11.60172   -6.69562   16.32823
      H1    12.08905   -5.87934   16.11963
       H    15.38766   -6.38891   16.37892
       O    14.92531   -6.37961   15.52250
      H1    14.69134   -7.30365   15.32306
       H    12.79313   -7.43453   12.16408
       O    13.12403   -6.63749   12.64617
      H1    13.10931   -5.96465   11.95897
       H     7.32703   -3.12341   17.85123
       O     7.56168   -3.89061   18.41333
      H1     7.60822   -4.68826   17.85666
       H     7.55399   -5.65423   14.94599
       O     7.37553   -5.07770   15.68818
      H1     7.60868   -4.23192   15.32177
       H    12.11968  -10.66815   16.32568
       O    12.85173  -10.61059   16.94594
      H1    13.48772  -10.02806   16.51917
       H    10.47485  -11.14842   14.73332
       O    10.44647  -11.26574   15.70168
      H1    10.05672  -12.14480   15.76888
       H    14.53684  -11.40641   18.36873
       O    14.46044  -12.18092   18.90322
      H1    13.88642  -12.74771   18.35411
       H     9.18171   -7.14596   17.15992
       O     9.15174   -6.19741   17.30441
      H1     8.55848   -5.91997   16.60897
       H    15.93578  -11.75470   16.49769
       O    15.98911  -10.91540   16.95667
      H1    15.58257  -10.31525   16.31434

