60
frame 2 | Written by MDAnalysis XYZWriter (release 2.4.3)
       H   -11.19340  -14.86969   -7.24218
       O   -11.28891  -14.99793   -8.20625
      H1   -12.22568  -15.15468   -8.30802
       H   -18.31147  -11.86883   -7.44961
       O   -18.42450  -11.72785   -6.50118
      H1   -18.65027  -10.80223   -6.36232
       H   -16.72349  -11.78905   -9.22665
       O   -15.94209  -11.81623   -8.70232
      H1   -15.30625  -12.04336   -9.34524
       H   -16.87389  -19.30222  -10.36976
       O   -16.38515  -18.65579  -10.89870
      H1   -16.28059  -17.90137  -10.27854
       H   -16.24042  -13.07115   -6.82291
       O   -15.57080  -13.54509   -6.33755
      H1   -15.44498  -13.07520   -5.49185
       H   -18.52203  -15.92952   -5.79359
       O   -18.44389  -16.55845   -6.52462
      H1   -18.91312  -17.32158   -6.22470
       H   -16.50510  -16.63836   -8.52653
       O   -16.14501  -16.52901   -9.42958
      H1   -15.36850  -15.93704   -9.32286
       H   -11.36516  -17.90962   -6.91333
       O   -11.61137  -17.57889   -7.75879
      H1   -11.39315  -16.63070   -7.77881
       H   -14.30835  -12.38170   -6.68476
       O   -13.71055  -11.61510   -6.67023
      H1   -14.02143  -11.06617   -7.41694
       H   -17.07532  -19.30819   -2.91673
       O   -17.31902  -18.68243   -3.64474
      H1   -16.44978  -18.43645   -4.05428
       H   -15.60014  -15.42608   -6.01108
       O   -15.74793  -16.36243   -6.29439
      H1   -16.70665  -16.40569   -6.31888
       H   -13.02235  -17.91426  -10.93839
       O   -12.40891  -17.53178  -10.32448
      H1   -12.49529  -18.08158   -9.54204
       H   -17.14206  -16.12045  -13.69023
       O   -16.20826  -16.05060  -13.82149
      H1   -16.14145  -15.65214  -14.72497
       H   -13.59440  -14.62339   -9.54644
       O   -13.58153  -15.46187   -9.08824
      H1   -13.30328  -16.11217   -9.75143
       H   -16.67801  -13.85966  -12.68765
       O   -16.44253  -12.94540  -12.93114
      H1   -17.24084  -12.53245  -13.29736
       H   -17.19199  -14.58694   -3.18849
       O   -17.52302  -14.26082   -4.01772
      H1   -18.48336  -14.31813   -3.92758
       H   -14.34717  -19.17193   -4.74026
       O   -14.64711  -18.36041   -4.30184
      H1   -14.61510  -17.68515   -4.96812
       H   -18.02045  -15.75559  -11.54143
       O   -17.60317  -15.00052  -11.11176
      H1   -17.16342  -15.42490  -10.37903
       H   -14.77721  -15.46753  -12.40795
       O   -13.89459  -15.39236  -12.06539
      H1   -13.45707  -14.75317  -12.64778
       H   -12.93176  -12.66199  -10.15255
       O   -13.83170  -12.99266  -10.18891
      H1   -13.91842  -13.29614  -11.09557

