60
frame 2 | Written by MDAnalysis XYZWriter (release 2.4.3)
       H    -2.04487  -15.76438   -8.25230
       O    -1.83247  -16.69654   -8.51322
      H1    -2.59377  -16.90737   -9.04899
       H     1.10388  -13.31322   -9.77049
       O     0.83149  -12.64596   -9.16667
      H1     0.41332  -12.01270   -9.72613
       H    -5.27847  -16.25034   -9.51809
       O    -6.04594  -15.67300   -9.46256
      H1    -5.74866  -14.84265   -9.10194
       H    -0.25869  -16.85826  -10.41108
       O    -0.60148  -17.38872  -11.14498
      H1    -1.25473  -17.96094  -10.71940
       H     1.31366  -18.93791   -7.85814
       O     2.09795  -18.49202   -8.22170
      H1     2.21569  -17.75779   -7.59709
       H    -1.69938  -17.97786   -5.83268
       O    -1.94192  -18.47147   -6.61622
      H1    -2.02295  -17.77060   -7.28495
       H    -2.04429  -14.08815  -10.07645
       O    -2.22027  -14.36552  -10.97962
      H1    -1.76124  -15.20322  -11.02098
       H     2.14566  -16.83207   -5.21632
       O     1.57188  -16.98537   -5.98246
      H1     1.61420  -16.13627   -6.44553
       H    -3.76688  -14.09742  -12.00435
       O    -4.25705  -13.65327  -12.74779
      H1    -5.06459  -14.14989  -12.82914
       H    -1.34622  -15.43702   -4.59569
       O    -1.17904  -15.79930   -5.47828
      H1    -0.30419  -16.19095   -5.40871
       H     0.40808  -18.36158  -12.19141
       O     0.52824  -19.18848  -12.69004
      H1     0.94254  -18.87279  -13.52572
       H     0.98800  -14.91092  -11.51688
       O     1.76406  -14.69510  -10.98110
      H1     2.49267  -14.81594  -11.63162
       H    -1.52443  -12.03212   -7.44234
       O    -1.87536  -11.12209   -7.57439
      H1    -2.44083  -10.98359   -6.82427
       H     0.57171  -14.71337   -8.17850
       O     1.35540  -15.27425   -8.08157
      H1     1.42808  -15.68677   -8.96522
       H    -4.85166  -15.05281   -4.40267
       O    -4.85293  -14.88177   -5.36764
      H1    -5.79190  -14.65508   -5.52447
       H    -4.55023  -17.63997   -8.01075
       O    -4.47934  -17.75795   -8.99275
      H1    -4.50168  -18.73426   -9.07562
       H    -3.15747  -17.89042  -12.94237
       O    -4.10982  -17.94091  -12.85625
      H1    -4.25379  -18.76623  -12.38758
       H    -3.61889  -17.78161   -6.12539
       O    -4.49335  -17.44138   -6.33460
      H1    -4.40852  -16.49059   -6.13161
       H    -4.77769  -13.75430   -7.21207
       O    -4.53182  -13.54547   -8.12308
      H1    -4.34390  -12.59165   -8.14839
       H    -2.87990  -14.15376   -7.06735
       O    -1.97241  -14.09231   -7.33617
      H1    -1.45844  -14.49833   -6.60835

