60
frame 3 | Written by MDAnalysis XYZWriter (release 2.4.3)
       H    13.18065    5.23827    1.64692
       O    12.90240    4.51071    2.20077
      H1    13.69853    4.39586    2.76823
       H    12.31152    5.64970    5.37824
       O    12.74299    4.95885    5.90331
      H1    12.69077    5.28503    6.79377
       H     8.63682    7.37249    4.22060
       O     9.27307    7.12303    4.92182
      H1     8.98402    6.20709    5.05717
       H    12.81884    0.16522    1.16444
       O    13.26381    0.67604    1.85675
      H1    12.55005    1.11256    2.34276
       H     8.85031    4.66283    3.10442
       O     8.02089    4.31746    3.43562
      H1     8.20128    4.16507    4.37840
       H    11.00104    6.92395    4.57707
       O    11.82502    6.79923    4.10182
      H1    11.55089    6.19102    3.39843
       H    10.70225    1.04636   10.16073
       O    10.29534    1.75688    9.62650
      H1     9.32995    1.52371    9.67051
       H    10.53488    2.01136    4.63046
       O    10.72400    1.35765    3.93762
      H1    10.83982    0.53032    4.38513
       H    12.87735    6.69477    8.28203
       O    12.80743    5.71872    8.34559
      H1    11.90315    5.69608    8.76968
       H    15.60338    3.10227    9.05587
       O    14.65129    3.00719    9.20261
      H1    14.29005    3.86205    9.02247
       H     7.35305    2.71699    2.43258
       O     6.63601    2.43461    1.82213
      H1     5.90326    3.04328    2.04452
       H    13.84314    1.77327    7.54197
       O    13.96041    0.82056    7.48683
      H1    13.16175    0.51318    7.02747
       H    16.92470    2.26648    3.37549
       O    16.30214    2.11810    4.11837
      H1    15.85299    2.99124    4.20134
       H    11.07390    4.85268    1.85219
       O    10.34791    5.48714    1.93703
      H1    10.69439    6.26692    1.50201
       H    11.08091   -1.04669    6.51962
       O    12.04158   -0.99115    6.54439
      H1    12.22376   -1.66107    7.25322
       H    15.57174    5.08846    4.39855
       O    14.85060    4.49187    4.15699
      H1    14.18194    4.67999    4.83382
       H    10.40740    2.34012    2.22771
       O    10.93663    2.68014    1.52344
      H1    11.68612    3.03651    1.94076
       H    11.11918    3.88334    5.57802
       O    10.20975    3.68973    5.41967
      H1     9.83530    3.47506    6.30197
       H     7.28981    4.04922    6.77245
       O     6.91269    4.75647    6.23546
      H1     6.39806    5.27038    6.85601
       H     8.42221    4.26251    8.77016
       O     8.60514    3.71626    8.03530
      H1     9.20013    3.09604    8.46910

