60
frame 2 | Written by MDAnalysis XYZWriter (release 2.4.3)
       H    -5.87231  -17.75695    0.54709
       O    -5.29107  -18.52107    0.54549
      H1    -4.41134  -18.15660    0.42439
       H    -6.85636  -19.30485    2.34114
       O    -7.39643  -18.67239    2.83983
      H1    -7.98677  -18.33414    2.15103
       H    -7.37872  -12.53853   -2.77650
       O    -7.45942  -13.40985   -3.17538
      H1    -7.16262  -14.04012   -2.53484
       H    -8.32305  -17.26842    5.66095
       O    -8.88517  -16.50030    5.68145
      H1    -8.39051  -15.84801    5.15104
       H   -11.72589  -15.30181   -3.15065
       O   -10.79535  -15.29491   -2.88654
      H1   -10.68577  -14.42615   -2.51546
       H   -13.51195  -14.38782    0.43329
       O   -12.54420  -14.30560    0.49779
      H1   -12.32625  -14.84490   -0.29948
       H    -6.34525  -13.63289    2.82181
       O    -6.45869  -13.11265    3.61484
      H1    -5.63316  -12.63389    3.69044
       H   -12.42341  -17.54060    3.45324
       O   -12.92327  -17.57091    2.63509
      H1   -12.82244  -18.47514    2.37662
       H   -10.59677  -14.11525    3.18636
       O   -11.48603  -14.53152    3.18779
      H1   -11.81093  -14.47277    2.27081
       H   -10.07236  -18.89462    4.13361
       O   -10.54450  -18.07951    4.10932
      H1    -9.94793  -17.41135    4.47870
       H    -8.58130  -16.43878   -1.77890
       O    -7.77272  -16.22929   -2.26988
      H1    -7.40061  -17.07283   -2.61964
       H    -8.05761  -13.90348    4.02767
       O    -8.93503  -14.23000    4.32083
      H1    -9.07679  -13.83961    5.20777
       H    -4.84326  -14.62335   -1.84558
       O    -4.85129  -15.22858   -2.61065
      H1    -5.31634  -15.98903   -2.23726
       H    -8.07911  -16.54699    1.04458
       O    -7.27030  -16.25277    0.57013
      H1    -7.57915  -15.88585   -0.27693
       H    -4.72397  -16.07751    4.88314
       O    -4.67079  -16.78103    4.24370
      H1    -5.55409  -17.16340    4.23578
       H    -4.51055  -14.19961    0.50960
       O    -4.48117  -13.74779   -0.36113
      H1    -5.07167  -13.00088   -0.20751
       H    -5.73499  -15.78474    1.44886
       O    -4.98096  -15.33575    1.84880
      H1    -4.77657  -15.97879    2.57154
       H   -10.05470  -17.17304    0.68298
       O    -9.55576  -17.28487    1.50771
      H1   -10.24800  -17.25580    2.19268
       H    -9.51281  -18.22392   -1.53627
       O    -9.93523  -17.43611   -1.20350
      H1   -10.45871  -17.15870   -1.92132
       H    -8.05563  -12.03225    0.47507
       O    -8.80476  -12.64386    0.54332
      H1    -9.32738  -12.46907   -0.26666

