60
frame 3 | Written by MDAnalysis XYZWriter (release 2.4.3)
       H    13.40669    9.61427   -3.61535
       O    13.24939    9.97213   -2.72374
      H1    12.56580    9.38881   -2.40688
       H    18.27240   12.90247   -4.62774
       O    19.03473   12.26610   -4.59759
      H1    19.57635   12.62829   -5.33085
       H    16.72292   13.97685   -5.09241
       O    17.14578   14.78796   -4.84652
      H1    16.78401   14.95739   -3.96673
       H    14.34720   12.48919   -0.61642
       O    14.71992   12.44657    0.28360
      H1    14.90565   11.50877    0.41564
       H    11.98691   13.20499   -7.50166
       O    12.06082   12.47243   -8.13631
      H1    12.80813   11.95709   -7.75699
       H    16.29462    8.65788   -7.03388
       O    16.35744    7.96592   -6.35004
      H1    17.18190    8.15638   -5.91948
       H    18.95172    9.20205   -4.17588
       O    18.82258    9.91337   -3.49956
      H1    18.85742   10.75564   -4.03283
       H    13.48025   11.75871   -2.56149
       O    13.55598   12.67489   -2.28530
      H1    14.34004   13.05594   -2.70230
       H    15.56077   11.93714   -5.35117
       O    15.68887   12.12041   -4.39125
      H1    15.45546   11.30936   -3.93696
       H    16.09049    9.86418   -2.24669
       O    16.19905    9.40727   -3.10481
      H1    17.11281    9.63420   -3.28052
       H    11.48539   11.65403   -4.84170
       O    10.54269   11.79287   -4.67597
      H1    10.47085   12.11498   -3.73883
       H    13.96337   10.71190   -6.60706
       O    14.82800   11.09232   -6.81137
      H1    15.06821   10.58187   -7.59018
       H    13.71597   13.64948   -5.74867
       O    13.03677   13.11359   -5.32229
      H1    13.50793   12.85102   -4.51833
       H    11.66992    9.59780   -6.78322
       O    12.42032    9.88994   -6.26056
      H1    12.83945    9.01565   -6.06634
       H    15.59091   12.62005   -7.23950
       O    15.86649   13.48093   -6.99584
      H1    16.81281   13.45220   -7.12708
       H    15.39838    7.82918   -2.73376
       O    14.90771    7.11311   -2.33105
      H1    14.09112    7.26744   -2.80296
       H    13.48146    7.31529   -5.47784
       O    13.94219    7.87709   -4.87031
      H1    14.84703    7.80132   -5.15882
       H    14.91713   15.27017   -2.00565
       O    15.66915   14.77509   -2.33144
      H1    16.28384   14.72775   -1.61413
       H    16.44902   12.99334    0.09352
       O    17.21092   13.60293    0.04794
      H1    16.82339   14.44344    0.29435
       H    15.34670    9.45472   -0.05993
       O    16.07584   10.04147   -0.17858
      H1    16.57423    9.98295    0.64233

