60
frame 3 | Written by MDAnalysis XYZWriter (release 2.4.3)
       H   -15.01409   10.75099   12.63871
       O   -15.90726   10.57806   12.30800
      H1   -16.18204    9.81673   12.80412
       H   -16.92963   11.94319    9.83159
       O   -16.07798   12.36354    9.71262
      H1   -15.50210   11.98236   10.38592
       H   -18.26756   14.74670   11.38682
       O   -18.77148   14.18095   10.80615
      H1   -19.15050   14.84638   10.20948
       H   -12.86879    9.47680    8.97722
       O   -13.50436    9.41955    9.70959
      H1   -14.33913    9.12191    9.28234
       H   -16.97264   14.05933    7.25712
       O   -17.84605   13.95814    6.94268
      H1   -17.73457   13.71766    6.04167
       H   -15.15159   15.33086    7.03535
       O   -15.11399   14.60981    7.67352
      H1   -15.14785   15.04079    8.54248
       H   -17.21528   13.05437   13.97539
       O   -17.25318   13.18208   13.00823
      H1   -16.33146   12.99994   12.79669
       H   -18.56775   12.48753   10.21162
       O   -18.63993   11.49427   10.20046
      H1   -18.66915   11.19876   11.12395
       H   -13.51194   14.18922    7.73304
       O   -12.67681   13.90899    8.18271
      H1   -12.51855   14.62026    8.83555
       H   -17.58661   15.11153   12.85851
       O   -17.54025   15.90699   12.32468
      H1   -16.66976   16.26336   12.62293
       H   -17.78740   16.45009    9.49586
       O   -17.65087   17.35430    9.74049
      H1   -18.50720   17.61970   10.12333
       H   -19.00950   10.56707    7.57601
       O   -19.27662   11.31629    7.04003
      H1   -18.69977   11.96883    7.47678
       H   -13.99686   12.88630   13.54029
       O   -14.52289   13.42899   12.94860
      H1   -14.07381   13.29410   12.10701
       H   -12.79667   12.35465    9.54918
       O   -12.89005   11.99938   10.44096
      H1   -13.18571   11.10517   10.26544
       H   -18.57271    7.87917    8.46843
       O   -18.57324    8.71705    8.01874
      H1   -18.65236    8.46896    7.11776
       H   -17.08443   10.21825    4.38721
       O   -16.64404   10.45903    5.23601
      H1   -17.44014   10.43120    5.82963
       H   -15.68090   14.06369   10.13634
       O   -15.32585   14.94214   10.33991
      H1   -16.03509   15.46307   10.73160
       H   -18.46426   12.01293   13.25462
       O   -19.16507   11.39202   13.46083
      H1   -18.63874   10.62862   13.66111
       H   -15.77982    9.79260    7.19241
       O   -15.59453    8.97951    7.68163
      H1   -16.43689    8.80012    8.06823
       H   -15.02796   11.66198    8.14264
       O   -14.90026   11.70972    7.15811
      H1   -14.86853   12.68661    7.04170

