60
frame 2 | Written by MDAnalysis XYZWriter (release 2.4.3)
       H    14.22131    3.56635   13.10577
       O    13.77694    4.41236   13.19972
      H1    13.04975    4.26017   13.83590
       H    10.14792    6.66437   10.83178
       O     9.54544    6.25851   10.20007
      H1    10.01317    5.42771   10.07057
       H    14.62156   13.64037   10.74182
       O    15.17208   12.83411   10.75770
      H1    14.64406   12.19644   11.22230
       H    12.06339    5.64420    9.74538
       O    12.19654    5.90412    8.83039
      H1    11.47960    6.50560    8.66472
       H    18.02083    8.49184   12.04435
       O    18.96298    8.24900   12.14097
      H1    18.93313    7.54990   12.83248
       H    13.43704    8.81164   14.87983
       O    13.37121    9.76723   15.05332
      H1    13.63733   10.13956   14.20488
       H    10.96518    9.91562    9.05794
       O    10.29514   10.17709    9.70108
      H1     9.63690   10.60505    9.13259
       H    15.05551    5.36333   10.42415
       O    15.79313    5.72214   10.93246
      H1    16.18206    6.31691   10.30093
       H    15.02285    8.64753   12.29198
       O    14.35251    8.68870   11.58937
      H1    13.60531    8.28780   12.03307
       H    12.99812   11.55653   12.00708
       O    13.75147   11.20483   12.48236
      H1    14.04209   10.39741   12.00568
       H    16.23276    9.40968    9.34466
       O    16.02620    8.48905    9.39200
      H1    15.49957    8.36256   10.18607
       H     9.50107    8.29048   12.92137
       O     9.86968    7.39517   13.02810
      H1     9.13841    6.81069   12.77583
       H    13.30334    9.48760    7.81098
       O    12.81806   10.00403    8.42576
      H1    13.26768    9.80461    9.28047
       H    11.58141    7.14364   12.68324
       O    12.55113    7.14041   12.73717
      H1    12.71242    6.24571   12.39392
       H    15.77182    6.44253   13.02558
       O    15.63439    7.26516   13.47850
      H1    15.78974    7.01783   14.38845
       H    13.16235    6.14312   14.81353
       O    12.71073    5.89172   15.60177
      H1    13.40244    5.86765   16.29090
       H    11.74900   10.29438   15.10390
       O    10.90756   10.79111   15.12755
      H1    11.02060   11.41040   15.86667
       H    17.09825   10.63726   12.35393
       O    16.78043    9.85700   11.92897
      H1    16.80224   10.17180   11.01748
       H    11.02151   11.52710   12.12115
       O    11.40393   11.99944   11.36911
      H1    11.13224   11.44228   10.62723
       H    12.33085    4.17220   11.02787
       O    11.49201    4.65116   11.22446
      H1    10.88901    3.91848   11.47692

