60
frame 2 | Written by MDAnalysis XYZWriter (release 2.4.3)
       H    12.61913    0.30443    9.46705
       O    13.16118   -0.44962    9.74766
      H1    13.26974   -0.30212   10.69776
       H    14.36621   -3.32391    8.63161
       O    14.05516   -3.47477    9.54889
      H1    14.09148   -4.42228    9.67711
       H    15.04053   -0.24364    9.73047
       O    15.97278   -0.26432    9.52635
      H1    16.41037   -0.14135   10.38099
       H    16.26494    2.55917    6.54011
       O    16.48069    3.05397    5.73514
      H1    16.50881    2.34624    5.07218
       H    14.95678   -2.93634    6.42805
       O    14.73918   -3.70785    6.92568
      H1    15.51988   -4.27337    6.82307
       H    17.79063    3.25309   11.73275
       O    17.11851    3.19678   11.03836
      H1    16.78498    4.10499   10.96980
       H    10.67006    0.30906   12.21364
       O    10.67213   -0.01776   11.32435
      H1    11.62133   -0.11720   11.15200
       H    18.14721   -0.49921   11.31021
       O    17.30138   -0.46027   11.83115
      H1    16.80093   -1.27090   11.60760
       H    17.43953    0.21004   13.59200
       O    18.07413    0.35239   14.30649
      H1    18.61524   -0.46971   14.37311
       H    10.91066   -2.54602    9.32893
       O    11.54085   -2.67371    8.60901
      H1    12.39933   -2.62822    9.07133
       H    13.22410   -3.41198   11.18002
       O    12.78089   -3.68128   12.01044
      H1    13.33996   -3.18702   12.64638
       H    16.37990   -1.15005    5.17667
       O    15.80536   -1.25171    5.95631
      H1    16.43957   -1.41651    6.66396
       H    15.95843    1.46041    8.58531
       O    15.91335    2.42156    8.63388
      H1    16.57935    2.58613    9.35111
       H    14.33105    3.32480    9.23963
       O    13.62070    3.84947    9.66451
      H1    13.24617    4.37663    8.95489
       H    17.44377   -1.30072    8.59162
       O    17.71612   -1.62547    7.73060
      H1    17.80758   -2.58268    7.81527
       H    13.32602    0.50463    6.63581
       O    14.15054    0.80126    6.22543
      H1    14.72089    0.03104    6.15195
       H    15.94238   -3.78173   12.10569
       O    16.14432   -3.03002   11.50642
      H1    15.52227   -3.25190   10.80226
       H    16.12379    2.43096   12.21152
       O    15.67572    2.17762   13.05283
      H1    15.03502    1.49545   12.81186
       H    14.61192   -3.14531   14.00491
       O    14.37111   -2.21297   13.87345
      H1    14.12781   -1.89238   14.73915
       H    13.20656    0.82818   13.35940
       O    13.44410    0.18388   12.68045
      H1    13.57281   -0.63513   13.17752

