60
frame 0 | Written by MDAnalysis XYZWriter (release 2.4.3)
       H    -0.88114   -4.34018   10.53802
       O    -0.17554   -4.19551   11.19336
      H1    -0.68145   -4.21926   11.99665
       H    -7.03818   -5.10541   15.74014
       O    -6.85096   -5.41800   14.85723
      H1    -6.05258   -4.92185   14.62208
       H    -1.27662   -7.11082   17.39501
       O    -1.63569   -7.52536   16.62111
      H1    -1.52282   -8.44414   16.81078
       H     1.01257   -6.00700   16.80043
       O     0.75754   -5.85523   15.88572
      H1    -0.06151   -6.35452   15.82114
       H    -4.72365   -6.75966   11.56401
       O    -5.38714   -6.35815   12.16122
      H1    -6.24634   -6.39901   11.72028
       H     1.11867   -4.54964   14.93269
       O     1.11024   -3.82821   14.29100
      H1     1.03969   -3.07706   14.86640
       H    -4.59188   -7.38967   14.71072
       O    -5.37432   -7.80960   15.10852
      H1    -6.00805   -7.08340   15.10193
       H    -4.34903   -7.38389   18.10338
       O    -4.46373   -8.10986   18.69979
      H1    -5.40728   -8.39321   18.56611
       H    -1.46569   -5.16290   13.83006
       O    -1.39578   -4.29048   13.45446
      H1    -0.56623   -3.94772   13.77951
       H    -4.95448   -4.24852   18.33431
       O    -5.30933   -3.52319   18.82798
      H1    -6.15082   -3.36182   18.37103
       H    -3.22469   -2.72528   15.52579
       O    -3.17342   -3.66451   15.37592
      H1    -2.49385   -3.74512   14.69090
       H    -3.16721   -4.75967   16.94123
       O    -3.50275   -5.12556   17.77856
      H1    -2.89489   -4.80435   18.45565
       H    -2.75515  -10.95828   18.56278
       O    -2.49259  -10.13574   18.15903
      H1    -3.21511   -9.51816   18.38718
       H    -3.13991   -9.71199   12.82614
       O    -2.52976   -8.98629   12.71458
      H1    -2.73590   -8.60038   11.88287
       H    -4.61795   -4.85786   12.82552
       O    -4.79642   -4.06490   13.36783
      H1    -4.31374   -4.19603   14.20724
       H    -2.92774  -10.26257   16.47759
       O    -3.47448  -10.33618   15.67377
      H1    -4.27830   -9.85750   15.89820
       H    -6.13111   -8.87305   13.76123
       O    -6.76899   -9.28263   13.16307
      H1    -7.22393   -8.56687   12.72419
       H    -0.85006   -9.42273   11.73808
       O    -0.05211   -9.60578   11.19418
      H1     0.40892   -8.72711   11.17461
       H    -2.93856   -7.56013   13.83325
       O    -2.95808   -6.74504   14.31233
      H1    -2.70824   -6.97314   15.25101
       H     0.81141  -10.14487   13.89813
       O    -0.01532  -10.56417   14.20031
      H1    -0.68540  -10.01660   13.79586

