60
frame 5 | Written by MDAnalysis XYZWriter (release 2.4.3)
       H     8.20175    8.24376  -11.96654
       O     9.18162    8.39167  -11.68247
      H1     9.30889    8.72602  -10.78920
       H     4.27080    8.66701  -11.78398
       O     5.09994    8.29527  -11.36703
      H1     5.53529    9.22589  -11.27478
       H     7.69096    8.39439  -16.58166
       O     8.68320    8.31529  -16.46229
      H1     9.01459    8.34591  -17.37688
       H     3.52203    8.75484  -16.71456
       O     3.76830    8.50705  -17.65552
      H1     4.12717    9.28308  -18.09673
       H     5.61997    3.70291  -13.74803
       O     5.84720    2.98962  -14.35518
      H1     6.69382    2.58452  -14.14516
       H     2.23715    5.60289  -10.55380
       O     1.42181    5.20874  -10.89235
      H1     1.55990    5.26454  -11.88034
       H     4.78675    5.55268  -12.79169
       O     5.04490    4.82225  -12.25983
      H1     4.35096    4.48189  -11.71696
       H     6.99973    5.93188  -10.16021
       O     7.16642    5.25175  -10.85933
      H1     6.32296    5.13454  -11.35516
       H     2.78676    5.93246  -13.87186
       O     1.98537    5.52186  -13.48563
      H1     1.78412    4.78391  -14.13427
       H     1.12874    8.67841  -15.05549
       O     1.93269    9.16787  -14.95415
      H1     2.14053    9.02622  -14.06282
       H     1.66975   12.02881  -15.76501
       O     2.20654   11.85624  -14.94098
      H1     2.19373   10.86978  -14.92025
       H     7.61850    5.72509  -17.10955
       O     6.97074    5.34926  -16.49487
      H1     6.61481    6.09921  -16.02634
       H     7.41708   11.07116  -11.58318
       O     6.59053   10.66515  -11.90866
      H1     6.00716   11.44371  -12.08409
       H     4.35206    8.17570   -9.34309
       O     4.44655    7.75488   -8.49118
      H1     3.78663    7.05793   -8.52811
       H     4.94286    4.76820  -16.06374
       O     4.00323    4.78907  -15.90691
      H1     3.74627    5.05099  -16.78632
       H     5.70125   10.60851  -14.75750
       O     5.39614    9.80950  -14.28584
      H1     6.00365    9.69226  -13.63190
       H     5.23474    8.09130  -16.74506
       O     5.94858    7.90535  -16.11313
      H1     5.78113    8.46047  -15.38758
       H     7.44122    6.73706  -13.32023
       O     6.99372    7.61893  -13.10779
      H1     6.30696    7.49075  -12.42015
       H     2.26129    9.98214  -12.38226
       O     2.68791    9.12227  -12.34144
      H1     2.06621    8.58282  -11.83479
       H     4.57183    6.96405  -14.95249
       O     4.19657    7.10920  -14.05489
      H1     4.62398    7.92242  -13.73090

