60
frame 3 | Written by MDAnalysis XYZWriter (release 2.4.3)
       H   -10.83833    0.10921   10.34136
       O   -10.98151    0.64841   11.13668
      H1   -11.59442    0.15912   11.71139
       H   -15.62553    3.91297   15.82324
       O   -15.85440    4.36282   15.02591
      H1   -15.01823    4.66434   14.65889
       H   -11.74668    2.43382   11.65229
       O   -12.38139    3.15462   11.73689
      H1   -11.88743    3.89119   12.16546
       H   -12.83858    4.18710    8.44333
       O   -12.23522    4.51435    9.12435
      H1   -12.52667    4.06328    9.95720
       H   -14.31049    0.51762   13.49955
       O   -15.12046    0.83401   13.93777
      H1   -15.74495    0.71841   13.23089
       H   -13.32251   -1.00060   12.45567
       O   -12.84735   -0.25654   12.86519
      H1   -12.53280   -0.59523   13.71320
       H    -9.45737    6.09475   10.53176
       O    -9.19302    5.21304   10.24292
      H1    -9.93859    4.87136    9.75954
       H   -15.65039    4.92412    9.10373
       O   -16.22595    4.53750    8.41399
      H1   -16.65175    3.80915    8.90908
       H   -12.39830    2.31216   13.36039
       O   -11.86388    2.13828   14.15690
      H1   -10.96773    1.99144   13.85604
       H   -12.91788    6.80999   16.10723
       O   -12.06569    6.79790   15.63398
      H1   -12.02355    5.90718   15.29853
       H   -10.68925    3.95114    8.01942
       O    -9.77506    3.69261    7.85980
      H1    -9.78594    2.72293    7.92153
       H   -12.67963    3.53465   15.31994
       O   -12.98096    4.20344   15.97454
      H1   -12.16457    4.20108   16.52398
       H   -13.22487    8.10439   10.77861
       O   -12.78674    7.35161   11.16777
      H1   -12.01374    7.70916   11.64363
       H   -17.56485    1.07396   11.23130
       O   -17.63761    1.91233   11.67308
      H1   -16.81987    2.29577   11.29900
       H   -11.99307    5.93308   12.35816
       O   -11.73689    5.48783   13.19395
      H1   -10.76924    5.65100   13.27781
       H   -14.93628    1.85462   10.20941
       O   -15.03331    2.74292   10.53741
      H1   -14.27499    2.81607   11.12956
       H   -12.98464    1.57318    7.39391
       O   -12.17459    1.56475    7.88989
      H1   -12.43561    1.84607    8.76507
       H   -14.27625   -0.79084    9.15915
       O   -14.57274    0.14935    9.16235
      H1   -14.89466    0.30611    8.25351
       H    -9.27811    3.89399   13.64290
       O    -9.47434    3.01256   13.32183
      H1    -8.98784    2.92890   12.48554
       H   -15.81342    6.53189   10.43347
       O   -15.04920    6.46950    9.85433
      H1   -14.26499    6.45595   10.40793

