60
frame 3 | Written by MDAnalysis XYZWriter (release 2.4.3)
       H   -14.33896    7.41700  -10.27047
       O   -13.71907    6.89867  -10.81897
      H1   -13.08868    7.55480  -11.21556
       H   -19.62365    9.62307  -11.31743
       O   -19.18038    9.73137  -12.15899
      H1   -18.26511    9.52419  -12.01279
       H   -15.76211   12.20379   -6.63510
       O   -16.59225   11.89345   -6.23285
      H1   -16.86132   11.13016   -6.76744
       H   -11.36899   10.76595   -9.98043
       O   -12.14744   11.16954   -9.57460
      H1   -12.52434   10.37047   -9.20013
       H   -17.89387    5.70998   -5.61650
       O   -17.73922    6.05076   -6.50712
      H1   -16.83400    6.39397   -6.39896
       H   -14.39737    6.85197   -5.56334
       O   -15.31484    6.97731   -5.80425
      H1   -15.65766    7.69430   -5.22853
       H   -18.54843   13.98407   -6.81619
       O   -19.22439   13.34555   -7.09953
      H1   -18.85854   12.91214   -7.86881
       H   -15.64565    8.91523  -10.66665
       O   -15.59175    9.32067  -11.54727
      H1   -14.68448    9.13402  -11.82611
       H   -13.96239   10.19121   -7.11535
       O   -13.52273    9.50219   -7.60285
      H1   -12.80191    9.19489   -7.02080
       H   -14.65866   11.23628   -3.84964
       O   -14.75525   10.74181   -4.68106
      H1   -15.54930   11.12133   -5.11301
       H   -16.49728    5.65071  -10.12234
       O   -16.39105    5.37461   -9.21536
      H1   -17.03783    4.65005   -9.16432
       H   -17.18924    7.52639  -12.14458
       O   -17.19329    7.01396  -12.95937
      H1   -17.72549    6.27063  -12.81327
       H   -14.22151   13.74075   -7.07975
       O   -14.32043   12.84737   -7.43915
      H1   -13.50709   12.39659   -7.18202
       H   -17.08039   11.87164  -13.15080
       O   -16.40576   11.22576  -13.42709
      H1   -16.13176   10.80454  -12.60404
       H   -15.63870    7.25648   -8.60162
       O   -15.35687    8.12738   -8.97485
      H1   -14.68934    8.46139   -8.37690
       H   -18.52942    7.25934   -5.81804
       O   -18.98857    8.06376   -5.54250
      H1   -18.54722    8.72521   -6.08082
       H   -15.17683   13.42800   -9.14626
       O   -15.67872   12.96572   -9.81468
      H1   -15.04624   12.25941  -10.09634
       H   -16.72305    9.08612   -8.09515
       O   -17.56628    9.42602   -7.74221
      H1   -18.25821    8.83220   -8.08015
       H   -18.97979   13.95715   -9.66590
       O   -18.57982   13.07322   -9.66838
      H1   -17.67076   13.27931   -9.89006
       H   -18.66547    8.43305  -10.20494
       O   -17.92945    7.86522  -10.44500
      H1   -18.20745    6.93015  -10.47417

