60
frame 2 | Written by MDAnalysis XYZWriter (release 2.4.3)
       H   -12.32230    6.76006  -17.19101
       O   -12.66734    7.62328  -17.38325
      H1   -13.39990    7.69025  -16.78107
       H   -12.66807    2.58516  -17.84001
       O   -13.00312    2.42063  -18.75389
      H1   -12.53370    3.12717  -19.18730
       H    -9.22550    9.03828  -17.25932
       O    -9.73964    9.65044  -17.81291
      H1    -9.92217    9.18685  -18.61424
       H    -4.76137    1.39653  -17.28550
       O    -5.25709    1.67261  -18.08727
      H1    -5.52865    2.56499  -17.87035
       H    -9.80268    4.85847  -17.62154
       O   -10.33380    5.52751  -17.17592
      H1    -9.77164    6.28894  -17.04000
       H   -11.91354   -0.51672  -14.78897
       O   -12.71406   -0.04008  -15.04119
      H1   -12.35250    0.80881  -15.23753
       H    -8.86046    2.80467  -19.11196
       O    -8.97776    3.50409  -18.42344
      H1    -8.61244    3.03652  -17.66625
       H    -7.40230    1.64102  -17.06459
       O    -7.66317    2.21781  -16.31990
      H1    -6.99198    2.93604  -16.26875
       H    -5.96587   -0.71560  -15.37821
       O    -6.62119   -0.21032  -14.90690
      H1    -6.49546    0.70460  -15.25065
       H    -7.75974    7.22352  -17.92302
       O    -8.21897    7.18138  -17.05976
      H1    -7.50490    7.02496  -16.44798
       H    -9.48050    5.20321  -15.47789
       O    -8.83173    4.91649  -14.82026
      H1    -9.09534    5.29247  -13.97773
       H    -9.76983   -0.60410  -17.35079
       O    -9.33037    0.20392  -17.61707
      H1    -8.67216   -0.08820  -18.23825
       H   -11.09318   -1.84849  -18.13178
       O   -10.61521   -2.31597  -17.45041
      H1    -9.98781   -2.83270  -17.95441
       H    -6.18338    6.53327  -14.18180
       O    -6.39042    6.40530  -15.09817
      H1    -7.17672    5.82569  -15.05346
       H    -6.07572    3.77244  -13.70935
       O    -5.21931    3.43607  -14.02975
      H1    -5.07487    2.63347  -13.49981
       H    -9.16269   -0.60875  -14.25226
       O    -9.68613   -0.13023  -14.89329
      H1    -9.17783   -0.22002  -15.71174
       H   -14.28796    3.31955  -17.72390
       O   -14.96067    3.52219  -17.07524
      H1   -15.75502    3.09029  -17.41977
       H   -11.38634    2.38442  -15.06495
       O   -11.55311    2.53001  -16.00251
      H1   -10.74643    2.19551  -16.41932
       H    -5.83594    5.08569  -16.62408
       O    -5.76879    4.14084  -16.52264
      H1    -5.30206    3.99660  -15.71255
       H    -9.60240    3.23445  -14.04396
       O   -10.12126    2.50017  -13.68956
      H1    -9.73414    1.76158  -14.13778

