60
frame 2 | Written by MDAnalysis XYZWriter (release 2.4.3)
       H    -2.04487  -15.76438   -8.25230
       O    -1.83247  -16.69654   -8.51322
      H1    -2.59377  -16.90737   -9.04899
       H     1.10388  -13.31322   -9.77049
       O     0.83149  -12.64596   -9.16667
      H1     0.41332  -12.01270   -9.72613
       H    -0.25869  -16.85826  -10.41108
       O    -0.60148  -17.38872  -11.14498
      H1    -1.25473  -17.96094  -10.71940
       H     1.31366  -18.93791   -7.85814
       O     2.09795  -18.49202   -8.22170
      H1     2.21569  -17.75779   -7.59709
       H    -1.69938  -17.97786   -5.83268
       O    -1.94192  -18.47147   -6.61622
      H1    -2.02295  -17.77060   -7.28495
       H     3.50807  -13.88396   -5.06297
       O     2.60845  -13.77563   -4.71826
      H1     2.69452  -13.44247   -3.81553
       H     6.13652  -16.39234   -3.16666
       O     5.84593  -17.21607   -3.57537
      H1     6.24617  -17.93434   -3.03287
       H     2.14566  -16.83207   -5.21632
       O     1.57188  -16.98537   -5.98246
      H1     1.61420  -16.13627   -6.44553
       H     1.21444  -13.18589   -6.03488
       O     0.47938  -12.86389   -6.50988
      H1     0.84021  -12.65694   -7.38215
       H    -1.34622  -15.43702   -4.59569
       O    -1.17904  -15.79930   -5.47828
      H1    -0.30419  -16.19095   -5.40871
       H     0.40808  -18.36158  -12.19141
       O     0.52824  -19.18848  -12.69004
      H1     0.94254  -18.87279  -13.52572
       H     0.98800  -14.91092  -11.51688
       O     1.76406  -14.69510  -10.98110
      H1     2.49267  -14.81594  -11.63162
       H     3.08257  -15.49172   -4.10860
       O     3.04127  -16.42930   -3.82017
      H1     3.99727  -16.63059   -3.62679
       H     0.57171  -14.71337   -8.17850
       O     1.35540  -15.27425   -8.08157
      H1     1.42808  -15.68677   -8.96522
       H     3.93078  -13.03245   -7.06667
       O     4.08609  -13.93930   -7.36516
      H1     3.20944  -14.23170   -7.69262
       H    -1.85258  -17.37890   -3.42819
       O    -1.77907  -18.21938   -3.91205
      H1    -0.94160  -18.52080   -3.53214
       H     4.59325  -15.93956   -7.35168
       O     5.04944  -16.67509   -6.88076
      H1     5.65327  -16.16701   -6.32803
       H     6.19953  -17.16394   -8.41496
       O     6.38211  -17.17940   -9.37008
      H1     7.05249  -16.48333   -9.50144
       H     2.10896  -17.01665   -2.34894
       O     1.83471  -17.23601   -1.44120
      H1     2.49433  -17.88683   -1.13632
       H    -2.87990  -14.15376   -7.06735
       O    -1.97241  -14.09231   -7.33617
      H1    -1.45844  -14.49833   -6.60835

