60
frame 3 | Written by MDAnalysis XYZWriter (release 2.4.3)
       H   -14.03809  -12.78010    4.21594
       O   -13.89495  -13.07219    3.30054
      H1   -13.09351  -13.62557    3.36471
       H   -17.19730  -17.92537    1.96345
       O   -16.88226  -18.68001    2.45437
      H1   -17.65396  -19.25163    2.53674
       H   -13.63512  -16.50046    6.62141
       O   -13.88428  -15.59705    6.84870
      H1   -14.14863  -15.66641    7.75182
       H    -8.85848  -16.25571    7.25253
       O    -9.41236  -16.92417    6.87425
      H1    -9.99144  -16.42853    6.29710
       H   -16.66331  -17.04272   -0.10998
       O   -16.17952  -16.68509    0.65017
      H1   -16.02528  -15.75908    0.48114
       H   -14.46198  -17.31083    0.80102
       O   -13.85809  -18.01894    0.52511
      H1   -14.19358  -18.77816    1.00362
       H   -13.83029  -17.80012    4.86785
       O   -13.59271  -18.12875    5.74717
      H1   -14.40052  -18.11229    6.24496
       H   -12.45198  -13.88097    0.66538
       O   -12.38439  -14.83048    0.59014
      H1   -13.10583  -15.16230    1.16273
       H    -8.67929  -14.84542    2.23149
       O    -8.51834  -14.03248    2.68327
      H1    -7.59551  -13.83620    2.42390
       H   -13.14021  -17.33431    2.21379
       O   -12.93114  -17.17001    3.15204
      H1   -12.46752  -16.30757    3.09152
       H   -10.83810  -14.49864    3.89427
       O   -11.48302  -14.73012    3.22858
      H1   -10.90460  -15.05038    2.51368
       H    -8.88803  -19.05964    2.93283
       O    -9.62737  -18.46310    3.13249
      H1    -9.92763  -18.75693    3.98132
       H   -10.95807  -13.99836   -2.42329
       O   -10.89332  -14.43202   -1.56821
      H1   -11.81368  -14.57774   -1.26460
       H   -15.84621  -14.33674    4.72511
       O   -16.23638  -15.10221    5.15852
      H1   -15.49953  -15.39682    5.68067
       H    -8.41185  -16.80086    0.78896
       O    -7.73527  -17.14374    0.16552
      H1    -8.10649  -16.87687   -0.69163
       H   -18.18555  -17.30901    3.72933
       O   -18.15583  -16.40129    3.45324
      H1   -17.46240  -16.05396    4.03790
       H   -13.64619  -18.23732   -1.17270
       O   -13.46565  -18.65012   -2.04759
      H1   -14.34028  -18.70315   -2.49545
       H   -17.29655  -13.64322    0.23893
       O   -16.39999  -13.84970    0.51257
      H1   -16.24952  -13.36179    1.34946
       H   -10.33107  -16.49848    0.94495
       O    -9.73172  -16.18113    1.63727
      H1    -9.81087  -16.88912    2.29754
       H   -10.07748  -17.99148   -0.40810
       O   -10.84519  -17.43694   -0.46185
      H1   -11.49940  -17.94118    0.04525

