60
frame 3 | Written by MDAnalysis XYZWriter (release 2.4.3)
       H    -6.07826   -3.43411    5.06524
       O    -5.99884   -3.25595    4.11356
      H1    -5.55517   -4.07800    3.80021
       H    -2.78014   -6.15188    1.88031
       O    -2.56611   -5.56557    1.14543
      H1    -2.60328   -4.68842    1.53220
       H    -5.31663   -5.87150    1.77730
       O    -5.42837   -5.57413    2.68529
      H1    -5.72105   -6.36188    3.17331
       H    -3.47012   -9.11538    2.69075
       O    -3.42668   -8.97233    3.65664
      H1    -2.92141   -8.16140    3.70023
       H    -7.80324   -7.51607    5.46046
       O    -8.60166   -8.06420    5.45689
      H1    -9.26294   -7.46247    5.04914
       H    -2.12476   -9.99088    5.68001
       O    -1.45783  -10.65380    5.86221
      H1    -1.29552  -10.55484    6.79654
       H    -3.20497  -10.38185    0.88805
       O    -3.89294   -9.78737    0.61225
      H1    -4.64653  -10.37898    0.46604
       H    -2.19737   -7.90121    6.86254
       O    -2.95508   -8.37234    7.23824
      H1    -3.14879   -7.94203    8.07652
       H    -5.15879   -8.44624    4.03480
       O    -5.95328   -7.92962    4.04612
      H1    -6.55234   -8.46016    3.53284
       H    -7.33995   -9.09282   -0.87146
       O    -7.03210   -8.38850   -0.24945
      H1    -6.17569   -8.08784   -0.60764
       H    -2.31031   -5.79924    4.21085
       O    -2.78381   -6.43682    3.66695
      H1    -3.54168   -5.91886    3.37186
       H    -5.80738   -9.18631    5.93960
       O    -5.26243   -9.69762    6.51171
      H1    -4.48963   -9.17348    6.69564
       H    -3.70438   -5.69421    5.87393
       O    -4.12298   -5.10331    6.48657
      H1    -4.77783   -5.65241    6.95112
       H    -4.10641   -6.42945   -1.55118
       O    -4.55332   -6.43356   -0.67919
      H1    -3.85376   -6.29672   -0.01581
       H    -4.28706  -11.21874    6.83068
       O    -3.71583  -11.91329    7.18449
      H1    -4.32837  -12.65902    7.30457
       H   -10.84960   -6.69713    3.22341
       O    -9.93155   -6.54096    3.46294
      H1    -9.45302   -7.05759    2.82818
       H    -7.47346   -9.16527    1.39743
       O    -7.46722   -9.26239    2.35367
      H1    -7.48013  -10.23988    2.51938
       H    -8.25907   -9.80516    4.62195
       O    -7.81548  -10.66969    4.60695
      H1    -7.48026  -10.82133    5.49402
       H    -6.51395   -6.85551    8.29719
       O    -6.38402   -6.08543    7.72710
      H1    -7.19000   -6.10425    7.15017
       H    -5.28262  -12.66473    2.20569
       O    -6.20394  -12.42822    2.30067
      H1    -6.12918  -11.84238    3.08286

