60
frame 2 | Written by MDAnalysis XYZWriter (release 2.4.3)
       H    17.88383   -0.19765  -16.11621
       O    18.67509    0.23401  -15.77905
      H1    19.40482   -0.13169  -16.30497
       H    14.01411   -2.76170  -15.78688
       O    14.70434   -3.23788  -16.26283
      H1    14.23132   -3.64030  -16.98687
       H    18.26974   -4.72613  -17.75192
       O    18.36979   -5.69220  -17.94814
      H1    18.41259   -5.66175  -18.94890
       H    12.17878    1.17976  -17.95431
       O    12.62999    1.97425  -18.20609
      H1    12.53064    2.57703  -17.45862
       H    19.13995   -3.13479  -17.19523
       O    18.29547   -3.29449  -16.72979
      H1    17.75557   -2.52941  -16.91265
       H    10.83948    0.78786  -15.98937
       O    11.31093    0.04248  -16.39188
      H1    11.73340   -0.42512  -15.68563
       H    15.62289   -3.33586  -14.53177
       O    16.04599   -3.46436  -13.67169
      H1    15.34037   -3.77938  -13.13227
       H    18.76172    3.42247  -15.38226
       O    18.54152    2.87427  -16.14885
      H1    18.64190    1.94624  -15.81722
       H    18.27850   -7.25520  -16.78075
       O    18.45617   -8.21251  -16.78160
      H1    17.98926   -8.46133  -15.94414
       H    14.97051    3.20214  -16.72697
       O    14.94226    3.44893  -15.79910
      H1    15.77048    3.91753  -15.68759
       H    14.62594   -6.41973  -17.62492
       O    15.40763   -6.47393  -18.19648
      H1    16.13260   -6.35757  -17.57011
       H    17.89224   -4.36122  -14.06880
       O    18.78215   -4.66334  -14.30181
      H1    18.96056   -4.13983  -15.08624
       H    16.69651   -1.42248  -18.15220
       O    16.39845   -1.22339  -17.25490
      H1    15.77596   -1.93298  -17.07629
       H    13.83483   -0.26738  -14.92550
       O    13.39348   -1.13241  -14.93083
      H1    13.30231   -1.38237  -14.02364
       H    16.39964    1.11409  -12.05029
       O    16.36111    1.58645  -12.87764
      H1    16.44441    0.90039  -13.57269
       H    17.35634    2.52597  -17.34977
       O    16.85527    2.04215  -18.03719
      H1    17.57271    1.48526  -18.39040
       H    12.14061   -4.87387  -16.70480
       O    12.59291   -4.71346  -17.56050
      H1    11.86951   -4.41905  -18.16815
       H    17.42073   -1.75867  -11.91529
       O    17.02116   -1.86392  -11.04750
      H1    17.73203   -2.06497  -10.50140
       H    18.35571   -0.77084  -14.27003
       O    18.13128   -1.38008  -13.55133
      H1    17.70003   -2.09692  -14.03715
       H    15.39216    1.68504  -15.55348
       O    15.45270    0.74525  -15.27881
      H1    15.89996    0.35977  -16.02940

