60
frame 0 | Written by MDAnalysis XYZWriter (release 2.4.3)
       H   -14.82407  -13.72535    2.27408
       O   -15.70098  -13.28707    2.11587
      H1   -15.50325  -12.82347    1.27662
       H   -15.22670  -15.42332    5.82185
       O   -14.89074  -14.89030    6.56054
      H1   -15.48036  -14.97406    7.32464
       H   -17.83996   -9.57701    3.85747
       O   -18.03862   -9.87262    2.96971
      H1   -17.48239   -9.31500    2.40884
       H   -14.90586  -11.52932    6.54808
       O   -15.41440  -12.08220    5.94177
      H1   -15.19039  -12.96386    6.31520
       H   -12.52284  -14.75315    2.35439
       O   -13.46929  -14.90893    2.32080
      H1   -13.51854  -15.78311    1.91362
       H   -12.05643  -11.63784    1.39969
       O   -12.80637  -11.05593    1.19679
      H1   -13.50251  -11.34729    1.79617
       H   -15.09605   -8.16299    1.25737
       O   -14.69441   -7.49060    1.80110
      H1   -14.98863   -7.70272    2.69412
       H   -13.93410   -9.49675    7.41201
       O   -13.59521  -10.41540    7.26121
      H1   -12.86236  -10.22556    6.66204
       H   -12.87533   -7.90417    1.96100
       O   -12.02203   -8.30518    1.82312
      H1   -12.26645   -9.23762    1.62052
       H   -12.81558   -6.15275    4.22138
       O   -12.89838   -6.92464    4.78739
      H1   -12.13857   -7.47982    4.57224
       H   -15.83555   -8.30777    8.21725
       O   -15.25581   -8.14466    7.46051
      H1   -15.75573   -8.46919    6.71832
       H   -17.36085  -12.19000    5.92768
       O   -18.28157  -12.00255    5.71125
      H1   -18.35815  -12.24048    4.78757
       H   -14.43019   -7.67939    4.60431
       O   -15.24254   -8.18002    4.49204
      H1   -14.88513   -9.05632    4.23350
       H   -12.86440  -14.50884    6.32135
       O   -12.07471  -14.13136    5.93445
      H1   -11.71220  -13.80876    6.79085
       H   -11.21221   -8.83134    3.52800
       O   -10.92752   -8.75458    4.44124
      H1   -10.14546   -8.21026    4.36409
       H   -17.29154  -13.03932    2.80747
       O   -18.19019  -12.70456    2.86363
      H1   -18.11502  -11.72261    2.92078
       H   -14.30666  -11.13539    4.37088
       O   -13.85357  -10.55530    3.74858
      H1   -12.95653  -10.50865    4.10947
       H   -18.28467  -10.15059    6.02394
       O   -18.13989   -9.26230    5.65098
      H1   -18.93031   -9.11273    5.13744
       H   -12.60863  -11.16682    8.56114
       O   -12.44542  -11.71642    9.34591
      H1   -11.69762  -11.31198    9.80879
       H   -11.51060  -12.16716    5.28654
       O   -11.41369  -11.33207    5.73153
      H1   -10.74576  -10.89052    5.19132

