60
frame 2 | Written by MDAnalysis XYZWriter (release 2.4.3)
       H   -16.09414    8.11558    4.62472
       O   -15.29673    7.59811    4.78883
      H1   -15.64346    6.86575    5.29328
       H   -11.04506    7.13994    5.12478
       O   -10.50500    7.51451    4.42173
      H1    -9.65716    7.11959    4.55536
       H   -12.34475    9.51844    6.28282
       O   -12.13493    9.84459    7.15981
      H1   -11.63979    9.09227    7.55852
       H   -13.55935    3.73881    4.58551
       O   -13.58644    4.52770    4.00679
      H1   -13.55953    4.14068    3.12010
       H   -12.43626    8.58424    4.18418
       O   -13.04768    9.19351    4.62725
      H1   -13.86177    8.70415    4.75160
       H   -10.55597   10.14344    5.27221
       O    -9.90447   10.84324    5.33562
      H1   -10.26933   11.40910    6.07987
       H   -11.13479    4.50038    5.37952
       O   -11.52129    5.30244    5.70411
      H1   -12.26393    5.45647    5.12160
       H   -14.68429    7.40477    3.00930
       O   -14.56023    7.77226    2.10498
      H1   -13.61353    7.56923    2.00014
       H   -17.01003   11.73867    7.02378
       O   -16.90475   12.38942    6.33223
      H1   -15.93888   12.55208    6.38521
       H   -14.27001   11.10945    3.11443
       O   -14.33792   10.63495    2.25740
      H1   -14.28918    9.70885    2.50389
       H   -17.99696    6.97564    3.79544
       O   -17.84001    7.85732    3.48360
      H1   -17.72313    7.75257    2.54824
       H   -15.12397    7.88609    0.32316
       O   -15.64427    7.80072   -0.48605
      H1   -15.62688    8.68428   -0.82217
       H   -12.37763    7.01823    8.05079
       O   -11.58754    7.51453    8.33915
      H1   -10.88623    7.03802    7.85793
       H   -17.49121    9.44372    4.43717
       O   -17.00992    9.74270    5.20856
      H1   -17.20309   10.70198    5.23085
       H   -11.94445    9.57853    0.76801
       O   -12.40479   10.25176    0.20945
      H1   -13.07003   10.63324    0.82421
       H   -16.12543    9.02432    6.79920
       O   -15.65679    8.44465    7.48491
      H1   -16.17466    8.54237    8.28634
       H   -11.22815    7.40364    2.31757
       O   -11.62494    7.80750    1.52209
      H1   -11.63608    7.06134    0.89910
       H   -14.99708   10.01439    7.92243
       O   -14.94891   10.96350    7.90390
      H1   -14.28712   11.13036    7.22104
       H   -13.46846   10.89723    4.83861
       O   -13.63361   11.75207    5.28683
      H1   -13.14986   12.38439    4.74128
       H   -14.41666    6.91674    7.26164
       O   -13.76196    6.31159    7.69124
      H1   -14.03985    6.24391    8.60544

