60
frame 3 | Written by MDAnalysis XYZWriter (release 2.4.3)
       H    12.81884    0.16522    1.16444
       O    13.26381    0.67604    1.85675
      H1    12.55005    1.11256    2.34276
       H    11.06837    1.27555   -6.82298
       O    10.71211    0.36435   -6.73239
      H1    10.78831    0.19155   -5.79947
       H     7.54713   -1.00949   -5.14775
       O     7.93060   -1.87709   -5.16506
      H1     7.85034   -2.08161   -6.11844
       H     6.28092    1.30698   -5.06087
       O     6.48262    0.56826   -4.47996
      H1     6.40741    0.91467   -3.54857
       H     7.55250    3.65877   -2.98110
       O     8.08716    4.27604   -3.47903
      H1     7.50850    4.50109   -4.18646
       H    12.74069   -0.43115   -2.41223
       O    13.31035    0.31288   -2.12388
      H1    13.43274    0.84493   -2.91133
       H    10.87589    3.88196   -3.00082
       O    10.54808    3.58704   -3.85789
      H1     9.58861    3.55575   -3.77175
       H     8.97311   -0.03220   -2.45953
       O     8.71357    0.60212   -1.78596
      H1     9.61342    0.89985   -1.49075
       H     9.55996   -1.31496   -4.34552
       O    10.13420   -0.76999   -3.80016
      H1    10.79039   -1.36179   -3.38950
       H     7.75738   -0.96928    1.38846
       O     8.36205   -1.72374    1.33165
      H1     8.91483   -1.56376    2.10127
       H     9.91134   -3.08235   -1.58461
       O     9.63963   -3.78050   -2.19583
      H1    10.34411   -3.67851   -2.84657
       H     8.57749    5.44602   -0.21747
       O     8.43165    4.51240    0.12595
      H1     9.07318    4.47979    0.86105
       H    10.40740    2.34012    2.22771
       O    10.93663    2.68014    1.52344
      H1    11.68612    3.03651    1.94076
       H    10.45799    3.66765   -0.57135
       O    10.95644    4.28123   -1.13762
      H1    10.37874    5.04371   -1.23344
       H     6.48957   -3.61988   -1.92808
       O     6.40495   -3.01394   -1.17865
      H1     6.25663   -2.10842   -1.51340
       H    10.81772   -1.08598   -0.55346
       O    10.53491   -1.94470   -0.24075
      H1     9.71864   -1.70498    0.20603
       H    12.97641   -2.25857   -3.18252
       O    12.19953   -2.20110   -2.61700
      H1    12.50775   -2.41176   -1.70953
       H     7.41289    3.15211   -1.05614
       O     6.94110    2.61993   -1.71994
      H1     7.50734    1.85182   -1.79033
       H     6.90096    0.10694   -1.35598
       O     6.18204   -0.42762   -1.65559
      H1     5.41275    0.08106   -1.43833
       H    11.09794    1.42683    0.15186
       O    11.14164    0.93274   -0.66889
      H1    12.08620    1.02105   -0.92490

