60
frame 3 | Written by MDAnalysis XYZWriter (release 2.4.3)
       H    15.74091   -3.14166   -3.05637
       O    15.27933   -2.97004   -2.20991
      H1    15.36415   -3.76265   -1.70784
       H    14.39416   -7.07391   -3.24293
       O    14.04947   -6.18057   -3.03576
      H1    13.43631   -6.43192   -2.30718
       H    11.91654   -6.81429   -0.45623
       O    12.23420   -6.06185   -1.00923
      H1    11.47852   -5.85766   -1.55215
       H    12.04572   -4.59408   -0.03909
       O    12.26305   -3.91715    0.60279
      H1    11.64379   -3.21739    0.32720
       H    11.64019   -9.77050   -3.45285
       O    11.16192   -9.18111   -4.09981
      H1    10.41282   -9.73233   -4.35006
       H    16.22573   -4.76163   -6.31087
       O    16.15679   -5.30408   -7.11165
      H1    17.03449   -5.68943   -7.16159
       H    13.80800   -8.68743   -5.34650
       O    13.09798   -8.51741   -5.98884
      H1    12.26699   -8.69641   -5.52756
       H    12.03834   -9.18565   -1.02599
       O    12.72187   -9.03550   -1.67356
      H1    13.34937   -9.78261   -1.69284
       H    13.29345   -6.62221  -10.18901
       O    13.13805   -5.71253   -9.89066
      H1    13.32288   -5.81510   -8.94840
       H    14.29925   -7.95548   -1.06333
       O    15.09032   -7.74919   -0.51295
      H1    15.06402   -6.78604   -0.36358
       H    13.15983   -3.93935   -5.12321
       O    13.84171   -3.34239   -5.45323
      H1    13.53766   -3.19650   -6.32873
       H    15.46087   -3.98539   -5.09135
       O    16.38268   -4.03258   -4.79321
      H1    16.64641   -3.12842   -4.64620
       H     9.91134   -3.08235   -1.58461
       O     9.63963   -3.78050   -2.19583
      H1    10.34411   -3.67851   -2.84657
       H    12.92255   -5.59980   -4.31743
       O    12.01612   -5.28458   -4.48177
      H1    11.91337   -5.42000   -5.45125
       H    10.44624   -3.92133   -7.89037
       O    10.65393   -4.51702   -7.16013
      H1    11.28450   -5.15773   -7.53674
       H    10.68699   -7.62836   -3.36701
       O    10.17261   -6.94198   -2.92238
      H1    10.07875   -6.29600   -3.63896
       H    13.96986   -5.97278   -7.05365
       O    13.03801   -6.04605   -7.24008
      H1    12.85711   -6.97847   -7.07353
       H    12.97641   -2.25857   -3.18252
       O    12.19953   -2.20110   -2.61700
      H1    12.50775   -2.41176   -1.70953
       H    16.31582   -6.52168   -2.63590
       O    17.06269   -6.04464   -2.97714
      H1    16.71389   -5.52059   -3.72754
       H    15.46048   -9.38723   -3.17859
       O    15.29474   -8.59678   -3.71336
      H1    15.70504   -8.78802   -4.55707

