60
frame 3 | Written by MDAnalysis XYZWriter (release 2.4.3)
       H    14.04489  -16.52331   16.45510
       O    13.43640  -15.89253   16.90249
      H1    14.04395  -15.47220   17.54169
       H     8.54791  -18.30464   19.26057
       O     8.14909  -18.22662   18.40979
      H1     7.27805  -18.62334   18.60331
       H    15.21419  -12.41058   17.39671
       O    15.62191  -12.91016   16.66096
      H1    16.19892  -12.21145   16.34442
       H     6.93787  -13.19932   18.68829
       O     6.67764  -13.72591   17.95166
      H1     6.27900  -13.10614   17.33150
       H     9.31170  -14.51931   11.80019
       O     9.83111  -15.35361   11.78593
      H1     9.49750  -15.83522   12.53653
       H    12.23437  -17.03521   12.99593
       O    11.99740  -17.97757   13.03478
      H1    12.82917  -18.39845   12.73602
       H     9.90035  -18.04891   13.54195
       O     9.11905  -17.65163   13.10341
      H1     9.02753  -18.28270   12.37244
       H     8.70130  -11.37757   17.60794
       O     8.41949  -11.23858   16.72563
      H1     9.11656  -11.54703   16.14899
       H    16.18480  -17.08385   15.86597
       O    15.42712  -17.30334   15.33084
      H1    15.35362  -16.51321   14.79030
       H    16.93269  -13.74760   17.51031
       O    17.38488  -14.26649   18.20275
      H1    17.57070  -13.60266   18.86680
       H    13.90703  -13.29295   15.62488
       O    13.88701  -13.32568   14.64000
      H1    13.05562  -13.78257   14.43890
       H    16.21516  -14.52179   13.31002
       O    15.57987  -15.19084   13.57098
      H1    14.86107  -14.72643   14.02409
       H    11.77466  -12.98754   17.86406
       O    12.37778  -13.24970   17.16564
      H1    12.61654  -14.13638   17.48104
       H     8.34409  -14.98194   14.60452
       O     9.23547  -14.85889   14.96954
      H1     9.15520  -15.13607   15.89522
       H     9.86028  -13.33622   15.17914
       O    10.40876  -12.57196   15.36378
      H1    11.17538  -12.93145   15.84747
       H    13.68312  -11.40681   18.56628
       O    14.26903  -12.08896   18.87231
      H1    13.89423  -12.93785   18.56335
       H    10.43750  -16.29483   18.15896
       O    11.25726  -16.84764   18.12933
      H1    11.85435  -16.28238   17.62009
       H     8.37068  -16.47953   18.09589
       O     8.79732  -15.61328   18.16033
      H1     8.08048  -14.99566   18.06431
       H     6.02617  -16.38449   15.52142
       O     6.64520  -16.94110   16.03027
      H1     7.05486  -17.57179   15.42385
       H    11.26771  -15.00958   12.86065
       O    12.16648  -14.94157   13.17112
      H1    12.58796  -14.28685   12.59135

