60
frame 0 | Written by MDAnalysis XYZWriter (release 2.4.3)
       H   -16.69887   18.38021  -14.94493
       O   -17.29543   17.75199  -15.36091
      H1   -16.91843   17.51872  -16.19840
       H   -17.70683   17.33013  -18.97744
       O   -17.54343   18.26022  -18.78597
      H1   -16.64470   18.25863  -18.45766
       H   -14.14473   14.60375  -16.75958
       O   -15.02183   15.01060  -16.79755
      H1   -15.58484   14.32628  -16.45067
       H   -10.17648    8.50321  -16.84256
       O   -10.58689    9.39752  -16.90090
      H1   -11.51915    9.25286  -16.67637
       H   -14.00967   14.45644  -18.51653
       O   -13.74475   15.00213  -19.28432
      H1   -12.92839   15.43191  -18.94487
       H   -12.78620   15.74949  -16.13489
       O   -12.37363   15.05900  -16.71006
      H1   -11.65657   15.60149  -17.10042
       H   -11.73428   12.04333  -18.22599
       O   -11.08825   12.10193  -17.50981
      H1   -10.82375   11.17659  -17.36427
       H   -15.25678   13.66501  -14.23954
       O   -14.39635   13.94283  -13.90802
      H1   -14.43601   14.88662  -13.85319
       H    -6.34199   16.34935  -16.69192
       O    -7.16892   16.80445  -16.91227
      H1    -7.80736   16.13437  -17.11595
       H   -14.45210    9.34005  -16.34874
       O   -14.95120    8.65655  -16.84351
      H1   -15.83047    8.57331  -16.42025
       H   -14.91443   16.83028  -17.32876
       O   -15.04791   17.78342  -17.42311
      H1   -14.40802   18.08049  -18.09081
       H   -18.40328   14.68033  -17.92094
       O   -19.00959   15.27387  -18.35792
      H1   -19.41233   15.76658  -17.63418
       H   -12.67807    9.80912  -15.09156
       O   -12.82155   10.29252  -15.92977
      H1   -12.45053   11.19284  -15.74520
       H    -9.06110   14.12913  -17.41166
       O    -9.32392   14.94199  -16.97396
      H1    -9.28195   14.73381  -16.02950
       H   -17.97840   12.81099  -15.94187
       O   -17.01316   12.80945  -15.73819
      H1   -16.89270   11.95131  -15.32576
       H   -16.53966   11.72322  -18.67289
       O   -15.76880   12.07048  -18.19315
      H1   -16.17199   12.29910  -17.35666
       H   -10.26091   18.24043  -13.31028
       O   -10.17434   18.90447  -14.00611
      H1   -10.54046   18.44454  -14.76981
       H   -13.17614   13.13629  -14.75633
       O   -12.32030   12.85830  -15.12679
      H1   -12.13512   13.58370  -15.71189
       H   -11.14960   18.99833  -16.69083
       O   -11.12643   18.10418  -16.31780
      H1   -10.40918   17.75289  -16.84285
       H   -12.56012   17.55138  -15.59621
       O   -13.25291   17.05895  -15.10757
      H1   -14.02919   17.47442  -15.45759

