60
frame 3 | Written by MDAnalysis XYZWriter (release 2.4.3)
       H    15.07725   -7.61712    7.59707
       O    15.78446   -7.43280    8.19321
      H1    15.83603   -8.18542    8.79177
       H    17.90230   -5.68778    7.25132
       O    17.64699   -4.97821    6.64893
      H1    17.91027   -5.32345    5.80604
       H    18.43837   -7.65066    0.73877
       O    19.00942   -8.42584    0.60486
      H1    19.40618   -8.11889   -0.22171
       H    13.73579   -8.17861    5.03905
       O    14.34045   -8.68005    5.58057
      H1    14.08789   -9.59766    5.40882
       H    14.73366   -3.36767    5.51171
       O    14.14178   -3.93548    5.01820
      H1    14.72884   -4.67259    4.74772
       H    16.62242  -10.55646    0.03633
       O    17.48830  -10.47818   -0.40661
      H1    17.87788   -9.66278   -0.08550
       H    18.95502   -8.29380    4.31441
       O    18.69223   -8.99134    3.70759
      H1    17.72051   -8.97420    3.68228
       H    15.63442   -6.91453    3.41513
       O    15.48503   -6.02288    3.69816
      H1    15.21426   -5.53454    2.90207
       H    18.21105   -7.61465    9.68985
       O    18.25618   -6.96011   10.40547
      H1    18.63408   -6.15886   10.05312
       H    19.04011   -5.61040    3.68147
       O    18.25920   -5.01189    3.54205
      H1    17.43915   -5.55443    3.59191
       H    15.40927   -8.99017    2.83576
       O    15.97224   -8.53971    3.47225
      H1    15.51726   -8.67688    4.31547
       H    16.47713  -13.58218    6.83043
       O    17.27343  -13.50568    6.22930
      H1    17.05334  -14.03553    5.46585
       H    18.60221   -5.19458    0.23192
       O    18.42544   -5.76014    0.98306
      H1    18.51875   -5.28170    1.80527
       H    18.66856  -10.76473    6.81243
       O    18.66573  -10.46747    7.73036
      H1    19.16823  -11.10658    8.25073
       H    14.19910   -8.89121    1.09362
       O    13.98004   -9.50692    1.81884
      H1    13.59142  -10.18325    1.24904
       H    17.95256   -1.79853    6.75822
       O    18.36367   -2.38679    7.39909
      H1    17.96592   -3.21024    7.14462
       H    17.38834   -7.56125    7.70804
       O    18.33258   -7.45526    7.51134
      H1    18.64260   -8.38348    7.52545
       H    17.02363  -11.22332    8.33156
       O    16.16857  -11.51916    8.64521
      H1    15.61024  -11.41429    7.84661
       H    17.64258  -12.44358    2.68939
       O    17.11979  -12.91836    2.00849
      H1    16.91984  -13.74915    2.46166
       H    13.14057  -10.91856    3.95198
       O    13.74021  -11.18180    4.63765
      H1    13.91154  -12.10921    4.47229

