60
frame 3 | Written by MDAnalysis XYZWriter (release 2.4.3)
       H     1.55781   -5.75569   12.28707
       O     0.92864   -5.04816   12.01239
      H1     1.51520   -4.60143   11.35593
       H     2.25193    0.54611   14.93032
       O     3.02626    0.03222   14.77071
      H1     2.84743   -0.32328   13.88537
       H     6.10390   -1.82845    9.90581
       O     6.44630   -1.45314   10.74076
      H1     5.60737   -1.25299   11.20237
       H     7.33066   -3.00324   11.50406
       O     8.12990   -3.53521   11.65768
      H1     7.81037   -4.40168   11.83467
       H     3.84907    3.41421   11.54905
       O     4.38002    2.59253   11.37512
      H1     4.56912    2.33955   12.27605
       H     3.34446   -2.34508   11.64896
       O     3.86476   -1.56556   11.97639
      H1     3.45048   -0.83454   11.53216
       H     7.26110    0.26060    9.82341
       O     7.72831    0.89933    9.31883
      H1     8.17895    0.40880    8.67052
       H     1.59409   -1.79242    8.50023
       O     1.58684   -2.75110    8.46496
      H1     2.17502   -2.92683    7.72413
       H     1.70940   -4.39980   13.63810
       O     2.10958   -3.73484   14.17415
      H1     2.01812   -4.06968   15.06966
       H     2.88776    1.64095   11.24788
       O     2.17923    0.98503   11.21501
      H1     1.59199    1.21115   11.94242
       H     0.03871   -1.29585   11.77907
       O    -0.59563   -1.74835   11.21316
      H1    -0.09469   -2.02723   10.43036
       H     4.96601   -3.28300   13.54205
       O     5.66494   -3.89547   13.79499
      H1     6.43242   -3.29944   13.76002
       H     4.56383    1.17389   14.34706
       O     4.98140    1.95025   13.97073
      H1     4.40367    2.67435   14.18153
       H     4.88269   -2.23445   16.20994
       O     5.13256   -3.11635   16.59215
      H1     5.29539   -3.71169   15.86030
       H     5.02548   -5.60937   10.65957
       O     5.27663   -4.83450   10.18325
      H1     5.37572   -5.12563    9.26268
       H     3.60736   -3.95936   10.67428
       O     2.69933   -3.58801   10.71485
      H1     2.51728   -3.46635    9.77494
       H     4.14855    1.60055    9.74823
       O     3.84689    1.22844    8.92770
      H1     3.25383    1.91952    8.58609
       H     0.30303   -1.06272   13.88216
       O     1.04714   -1.20586   13.29484
      H1     1.46255   -1.98492   13.68729
       H     4.55387   -0.23127    8.35929
       O     5.04989   -0.89867    7.89472
      H1     4.30590   -1.45691    7.56245
       H     1.62374    0.33850    9.29420
       O     1.20642   -0.05791    8.52299
      H1     0.25065    0.03443    8.58898

