60
frame 0 | Written by MDAnalysis XYZWriter (release 2.4.3)
       H    -8.86912   -5.36389   -6.03408
       O    -9.55783   -5.85550   -6.47995
      H1    -9.21069   -6.75887   -6.32615
       H   -10.75874   -3.91868   -4.13644
       O   -11.53584   -3.36415   -4.28746
      H1   -11.62389   -3.37891   -5.27273
       H   -12.90379   -6.09563   -5.19570
       O   -13.33643   -5.49002   -4.54617
      H1   -12.65512   -4.78980   -4.49688
       H   -12.43547   -7.92210   -6.43467
       O   -12.39060   -7.84131   -5.49682
      H1   -13.25709   -8.13600   -5.21576
       H   -14.76206   -5.88248  -12.02048
       O   -13.85111   -5.81964  -12.33543
      H1   -13.87249   -5.00312  -12.79533
       H   -12.55955   -2.17173   -6.63665
       O   -11.93934   -2.80984   -6.98437
      H1   -12.46082   -3.57572   -7.22457
       H    -8.00154   -2.74852   -6.78076
       O    -8.81678   -3.19685   -6.47330
      H1    -9.35564   -2.47491   -6.06562
       H    -7.30386   -8.38132   -9.74582
       O    -7.81330   -8.42653   -8.92086
      H1    -8.67306   -8.80226   -9.16386
       H   -11.28248   -2.28920   -9.47811
       O   -10.38131   -2.59672   -9.28655
      H1   -10.53199   -3.10951   -8.50323
       H    -8.73924   -5.72708   -8.04103
       O    -8.43150   -5.77836   -8.97955
      H1    -8.11333   -6.70144   -9.07691
       H   -14.66160   -3.69791   -7.38404
       O   -14.12629   -3.84340   -8.19307
      H1   -14.08450   -2.97329   -8.61127
       H   -13.23700   -1.64064  -10.74250
       O   -13.00844   -1.71538   -9.81656
      H1   -13.11675   -0.80994   -9.48480
       H   -13.25815   -6.92673   -8.00414
       O   -13.31500   -7.89378   -8.10377
      H1   -12.39424   -8.20270   -8.00436
       H   -16.18365   -6.05526   -8.91135
       O   -15.56746   -5.82478   -9.59550
      H1   -15.01716   -5.20000   -9.12419
       H   -10.68772   -4.30879  -10.20362
       O   -10.59075   -5.24180  -10.34450
      H1    -9.86662   -5.46747   -9.77382
       H   -10.81616   -7.85176  -11.81804
       O   -10.28475   -8.33443  -12.48962
      H1   -10.96318   -8.82531  -13.01925
       H   -11.05046   -6.03927   -7.36653
       O   -11.70747   -5.67233   -7.96927
      H1   -11.31610   -5.65179   -8.84601
       H   -13.17675   -7.89438  -10.02252
       O   -12.53856   -7.95297  -10.76591
      H1   -12.71137   -7.11206  -11.19216
       H   -10.67211   -9.13922   -8.52689
       O   -10.88806   -8.78376   -7.66054
      H1   -10.68298   -9.51785   -7.04588
       H   -10.55818   -4.68995  -12.39426
       O   -10.36474   -4.69880  -13.35644
      H1   -10.36524   -5.66282  -13.54196

