60
frame 2 | Written by MDAnalysis XYZWriter (release 2.4.3)
       H     9.37030   -7.02410  -12.23877
       O     8.47025   -7.14381  -11.95979
      H1     8.20539   -6.38040  -11.44995
       H    10.41850   -3.54321  -11.79388
       O    10.73794   -2.93356  -11.13380
      H1    11.06369   -3.52631  -10.42949
       H     7.64003   -3.95732  -11.36947
       O     7.15941   -3.21926  -11.82037
      H1     6.78125   -3.77652  -12.52713
       H     8.85706   -4.28315   -9.30044
       O     8.27147   -4.94484   -9.68255
      H1     7.79176   -5.20858   -8.87761
       H    12.12934    1.36243   -7.15504
       O    11.38101    0.80544   -7.35319
      H1    11.53844    0.00851   -6.81105
       H     6.78969   -3.21837   -4.48206
       O     7.32406   -3.97840   -4.21835
      H1     8.16283   -3.84465   -4.70636
       H     7.91404   -2.04319   -7.10853
       O     6.96413   -2.18590   -7.07609
      H1     6.86616   -3.13713   -7.12938
       H     7.20068   -4.99463   -6.09477
       O     7.01147   -5.13272   -7.03385
      H1     7.24256   -6.09544   -7.16845
       H    10.86825   -7.08831  -10.56234
       O    10.78522   -6.10713  -10.65691
      H1     9.96269   -5.88331  -10.16197
       H     9.40314   -0.75801   -6.38343
       O     9.65692   -1.37392   -7.07155
      H1     9.49352   -0.91789   -7.90766
       H    11.79065   -2.46076   -6.65094
       O    12.64051   -2.24335   -7.10748
      H1    12.85809   -3.11142   -7.48066
       H    11.97024   -1.69724  -11.14106
       O    12.62936   -1.01200  -11.34616
      H1    12.96409   -0.70299  -10.46441
       H    14.40230   -3.76560   -9.57150
       O    14.40518   -4.14411   -8.66440
      H1    15.36814   -4.21073   -8.48241
       H    11.21371   -5.13786   -5.69861
       O    11.60098   -4.91840   -6.53233
      H1    12.43471   -5.37263   -6.50424
       H    13.11291    0.64204   -8.81326
       O    13.65954   -0.14275   -8.85284
      H1    13.36041   -0.67458   -8.11734
       H     9.47828   -5.27570  -13.77577
       O    10.05765   -4.64480  -13.32714
      H1    10.58264   -5.17471  -12.69297
       H    10.53153   -2.90880   -8.02808
       O    10.59051   -3.73817   -8.55406
      H1    10.78045   -4.42487   -7.87891
       H    10.68126   -4.18127   -3.41109
       O    10.36653   -3.70770   -4.17481
      H1    10.95937   -2.95879   -4.22360
       H     8.02903    0.15933   -9.46720
       O     8.91328    0.23221   -9.09199
      H1     9.43459    0.16878   -9.90464
       H    13.43471   -7.39847   -5.59061
       O    13.33647   -6.97408   -6.44416
      H1    12.55558   -7.40647   -6.81613

