60
frame 2 | Written by MDAnalysis XYZWriter (release 2.4.3)
       H    13.15123  -16.95322   17.32123
       O    12.50505  -16.45926   17.80555
      H1    13.00091  -16.12543   18.56066
       H     9.23395  -14.77716   12.13633
       O     9.97132  -15.19303   11.63051
      H1    10.13331  -16.03848   12.12121
       H     7.37004  -15.80478   13.90233
       O     7.99044  -15.16013   13.54884
      H1     7.43456  -14.38601   13.31822
       H    10.91773  -16.89247   13.95622
       O    10.60229  -17.31004   13.16565
      H1    10.58775  -18.21982   13.41797
       H     7.11862  -17.84507   15.26781
       O     6.56806  -17.03857   15.25016
      H1     6.79351  -16.54477   16.05348
       H    15.00783  -16.69396   16.09012
       O    14.37594  -17.33835   15.76308
      H1    13.91053  -16.93357   14.99044
       H    16.21460  -14.91668   17.50477
       O    16.02543  -15.87526   17.41607
      H1    15.73838  -16.15279   18.28913
       H    13.20015  -13.38455   15.26729
       O    13.85625  -13.44945   14.57724
      H1    13.41982  -14.05381   13.95656
       H     9.94209  -17.46219   16.32026
       O     9.07184  -17.65751   16.72125
      H1     9.33652  -18.29348   17.39929
       H     7.52023  -13.45821   15.45495
       O     6.69828  -12.93257   15.50227
      H1     6.75159  -12.20913   14.87574
       H    16.43210  -14.28302   13.65108
       O    16.30507  -14.48080   14.60011
      H1    15.44288  -14.03536   14.76599
       H    11.76741  -13.54032   17.69643
       O    12.67234  -13.69002   17.40284
      H1    12.81613  -14.64898   17.44022
       H     9.61255  -14.53567   18.66174
       O    10.24161  -13.85467   18.46289
      H1    10.74880  -13.79618   19.27296
       H    12.11968  -10.66815   16.32568
       O    12.85173  -10.61059   16.94594
      H1    13.48772  -10.02806   16.51917
       H     8.93097  -14.42375   14.84992
       O     9.41248  -13.91995   15.50694
      H1     9.12157  -14.29301   16.34587
       H    10.47485  -11.14842   14.73332
       O    10.44647  -11.26574   15.70168
      H1    10.05672  -12.14480   15.76888
       H    14.53684  -11.40641   18.36873
       O    14.46044  -12.18092   18.90322
      H1    13.88642  -12.74771   18.35411
       H    10.64266  -15.04640   15.17674
       O    11.20749  -15.80792   15.40914
      H1    11.80754  -15.44233   16.10090
       H     8.37564  -16.07529   17.16085
       O     7.98951  -15.17701   17.26437
      H1     7.26990  -15.31252   17.87794
       H    11.99196  -15.47076   12.33990
       O    12.63818  -14.77861   12.46816
      H1    12.47056  -14.19723   11.70812

