60
frame 3 | Written by MDAnalysis XYZWriter (release 2.4.3)
       H    16.34534   -0.57615   -9.57705
       O    16.82694    0.19268   -9.24788
      H1    16.16125    0.87919   -9.38301
       H    18.87919    4.79393   -3.67994
       O    19.09741    4.35038   -4.52699
      H1    18.21994    4.27103   -4.96471
       H    13.35625    3.42868  -11.14445
       O    13.78376    2.86034  -10.46652
      H1    14.26078    2.21651  -11.01538
       H    17.31789    2.24747   -2.94518
       O    17.63341    2.68012   -2.17218
      H1    17.49424    2.04761   -1.42869
       H    16.02759    6.30506   -9.78598
       O    16.75514    6.85767  -10.12596
      H1    17.47595    6.23773  -10.31494
       H    16.91317    6.00738  -13.54822
       O    17.40886    5.17604  -13.67490
      H1    17.89322    5.33048  -14.51259
       H    17.78858    1.99824  -13.88532
       O    17.84692    1.35547  -14.59297
      H1    17.32127    1.80928  -15.25733
       H    16.59667    3.72318   -8.97146
       O    15.81012    4.23350   -9.16784
      H1    15.39152    3.76464   -9.92535
       H    16.35871    6.20698   -6.48693
       O    16.38677    5.24100   -6.52717
      H1    15.74544    5.01765   -7.19894
       H    19.04134   -0.02879   -6.92345
       O    18.39359   -0.70096   -7.14450
      H1    17.94901   -0.21541   -7.87148
       H    13.73684    0.55525   -6.71617
       O    13.34984    0.46612   -7.61042
      H1    12.53758   -0.02967   -7.44537
       H    15.42170    0.40642  -11.49173
       O    15.52131    1.24838  -11.95106
      H1    15.42470    1.03322  -12.89304
       H    17.36002   -1.22681   -5.59180
       O    17.35577   -1.43044   -4.67683
      H1    18.29540   -1.28326   -4.45787
       H    17.89460   -1.86174  -12.06160
       O    17.54351   -2.75049  -11.78688
      H1    18.26141   -3.01358  -11.18150
       H    14.30278   -0.47325   -9.48935
       O    14.53765   -1.00453  -10.24667
      H1    14.81168   -1.85836   -9.85756
       H    15.57548    0.37177   -2.61340
       O    15.95667    0.60883   -3.47494
      H1    16.54268   -0.12617   -3.65624
       H    18.99700    2.56952   -8.42080
       O    18.28091    2.97153   -8.88365
      H1    18.58809    2.72543   -9.76318
       H    18.64780    1.51396  -12.02176
       O    17.99895    2.21473  -12.00005
      H1    17.15422    1.73222  -11.98935
       H    14.88527    3.98508   -5.64802
       O    14.24766    3.70720   -5.00023
      H1    14.49111    4.19535   -4.20549
       H    18.32147    5.23008  -11.79160
       O    19.12390    5.36623  -11.26622
      H1    19.23533    4.51874  -10.84751

