60
frame 3 | Written by MDAnalysis XYZWriter (release 2.4.3)
       H    -3.66013    7.43597  -10.76006
       O    -3.13019    7.53716   -9.94963
      H1    -2.56235    6.73161  -10.00453
       H     2.77814    4.15871   -7.95189
       O     1.87552    4.45205   -7.89226
      H1     2.01275    5.39322   -7.69093
       H    -0.39054    4.81049   -7.21892
       O    -1.26903    5.20916   -7.39749
      H1    -1.16495    6.17809   -7.44733
       H     4.02481    2.63291  -14.05381
       O     3.91101    2.70775  -13.11133
      H1     4.65842    3.25739  -12.83048
       H     6.83861    4.85473   -9.07015
       O     6.05704    5.21396   -9.51576
      H1     5.36900    5.00433   -8.87389
       H    -0.26148    6.78536  -12.44439
       O    -0.82417    6.28833  -11.81796
      H1    -1.57567    6.04085  -12.33519
       H     1.47963    2.78066   -4.80623
       O     0.90325    3.20345   -5.47555
      H1     1.42789    3.22225   -6.29216
       H     4.83961    2.85262   -8.05253
       O     4.22161    3.42171   -8.56840
      H1     3.99435    2.89640   -9.33622
       H     1.09239    2.84666   -8.47325
       O     0.39621    2.22266   -8.69703
      H1     0.03271    2.62152   -9.50060
       H     3.18137    2.32572  -11.55919
       O     3.14788    2.10244  -10.60528
      H1     2.40821    1.50757  -10.54068
       H     4.08896    0.46742   -9.70575
       O     5.00686    0.24712   -9.51805
      H1     5.43243    0.55477  -10.32040
       H     0.92555    0.61180   -9.50806
       O     1.67509   -0.03696   -9.64031
      H1     1.38867   -0.55091  -10.42324
       H     2.46839    5.86555  -10.99392
       O     3.04410    6.64014  -11.00417
      H1     2.53122    7.34991  -11.42595
       H    -1.01305    8.66894   -8.31649
       O    -0.75592    7.79275   -7.98052
      H1     0.18311    7.82600   -8.16003
       H     2.46708    4.28968  -13.25474
       O     1.60623    4.60674  -13.42209
      H1     1.18372    4.49159  -12.56244
       H     5.36798    5.33658  -11.26774
       O     5.14070    4.83517  -12.05389
      H1     4.90835    5.49195  -12.69350
       H     1.58949    4.50216   -9.68713
       O     1.18702    4.62380  -10.56055
      H1     0.36722    5.11583  -10.42380
       H    -1.88081    4.82349   -9.03080
       O    -2.41644    4.86548   -9.86764
      H1    -2.60850    3.93988  -10.03894
       H     2.57555    6.88640   -9.12390
       O     2.16936    7.09615   -8.26540
      H1     2.81788    7.68155   -7.82050
       H     4.81656    7.19416  -13.67320
       O     4.04363    6.65517  -13.88946
      H1     3.42001    6.67265  -13.16441

