60
frame 6 | Written by MDAnalysis XYZWriter (release 2.4.3)
       H    15.76695    9.02384   -6.70408
       O    14.99072    9.53309   -6.35152
      H1    14.68171    9.06277   -5.52970
       H    12.68297    5.88243   -7.83283
       O    12.02622    5.40954   -7.20623
      H1    12.50077    5.54629   -6.35088
       H    13.38536   12.81420   -4.69587
       O    13.72251   13.72754   -4.70526
      H1    12.91484   14.10579   -4.29082
       H    14.46838    9.63796   -8.22621
       O    14.88927    9.25609   -9.03002
      H1    14.28127    9.58204   -9.67798
       H    17.46961   11.22975   -2.69401
       O    16.92189   10.67181   -3.33362
      H1    15.97141   10.71700   -3.12368
       H    11.18030    7.99754   -3.19323
       O    11.49039    8.31675   -2.35615
      H1    10.82820    8.01368   -1.71340
       H    16.65028    7.01983   -5.49399
       O    16.81152    6.77169   -4.56553
      H1    16.67998    5.80035   -4.51360
       H    12.34699   10.76661  -10.85539
       O    13.16126   10.85588  -10.36212
      H1    12.87347   10.96415   -9.47413
       H    17.75405   11.59771   -5.69986
       O    17.54592   10.90348   -6.30847
      H1    16.59727   10.76004   -6.16727
       H    13.04666   12.30646   -7.79874
       O    12.59184   11.40891   -7.77604
      H1    11.66163   11.67495   -7.69829
       H    12.47288    5.34118   -3.68487
       O    13.17130    5.41756   -4.36417
      H1    13.68052    6.25421   -4.28430
       H    16.31358    9.99888   -9.81697
       O    17.11386   10.12460  -10.33486
      H1    16.90931   10.72061  -11.01839
       H    16.94130    6.65007   -7.35000
       O    16.77544    7.60162   -7.29435
      H1    17.39333    7.98458   -7.93913
       H    12.62199   10.92366   -5.83878
       O    12.72242   11.08370   -4.92738
      H1    11.98016   10.78898   -4.43797
       H    17.82328    9.24882   -3.14141
       O    18.28624    8.37392   -2.98737
      H1    18.08902    7.83201   -3.71780
       H    13.32804   10.49511   -2.62956
       O    14.26706   10.24031   -2.50523
      H1    14.14938    9.52202   -1.81758
       H    15.32961    7.56930   -4.22027
       O    14.41618    7.99320   -4.31609
      H1    14.30323    8.70384   -3.70870
       H    14.51307    7.36636   -8.57487
       O    13.96373    6.55410   -8.77354
      H1    14.51140    5.95131   -9.26025
       H    13.63482   12.93869   -1.47036
       O    14.21957   12.32685   -0.97328
      H1    14.37424   11.48092   -1.52382
       H     9.52694    7.48607   -5.05409
       O    10.11439    8.17093   -5.40454
      H1    10.03089    8.97778   -4.96060

