60
frame 3 | Written by MDAnalysis XYZWriter (release 2.4.3)
       H    -6.62861  -12.12404  -11.41943
       O    -6.48771  -11.44340  -10.75605
      H1    -7.01856  -11.68831   -9.98892
       H    -8.63006  -11.62558  -16.45904
       O    -7.92680  -11.66358  -17.11169
      H1    -7.21315  -12.10515  -16.62769
       H    -5.15296  -15.55743   -7.73805
       O    -4.99246  -14.75102   -8.24337
      H1    -5.61793  -14.71473   -8.96775
       H    -4.12896  -11.56796  -13.81223
       O    -3.25330  -11.37054  -13.46379
      H1    -2.97558  -10.56024  -13.95469
       H    -3.20858  -13.08282  -12.15629
       O    -2.56579  -13.33486  -11.45354
      H1    -2.82725  -14.26092  -11.24485
       H    -3.03891  -16.35766  -10.88006
       O    -3.23965  -16.15464  -11.79795
      H1    -2.39164  -16.00334  -12.23718
       H    -6.29627  -17.40292  -10.88076
       O    -6.52946  -18.14963  -11.46731
      H1    -5.69827  -18.58707  -11.56233
       H    -9.53164  -15.52780  -11.36126
       O    -9.77511  -15.15476  -12.24393
      H1    -9.02467  -14.57245  -12.45669
       H    -6.06960  -17.59688  -14.66227
       O    -6.92481  -17.51632  -14.24830
      H1    -6.73458  -17.60391  -13.31067
       H    -4.56012  -15.05588  -12.67851
       O    -5.03448  -14.65409  -13.41170
      H1    -5.60601  -15.35446  -13.68255
       H    -7.22998   -9.20184  -14.03397
       O    -7.66379  -10.06925  -14.20438
      H1    -6.98206  -10.69268  -14.47992
       H   -10.07701  -16.19188  -13.87011
       O   -10.11398  -16.94433  -14.45653
      H1    -9.93847  -17.67023  -13.83673
       H    -2.61061  -14.75951  -15.34059
       O    -3.49935  -14.80118  -15.64853
      H1    -4.01441  -14.71031  -14.84630
       H    -7.47817  -15.41073  -11.05297
       O    -7.26129  -15.47406  -10.10386
      H1    -8.12261  -15.34471   -9.67825
       H    -5.34687  -12.73842  -15.14517
       O    -5.66171  -11.84768  -15.13199
      H1    -5.34002  -11.41270  -15.91309
       H   -10.52865  -14.15973   -9.70874
       O   -10.76160  -13.39061  -10.24732
      H1   -10.48160  -13.64322  -11.13592
       H    -8.75880  -13.68910  -15.08193
       O    -9.17353  -13.16820  -14.37212
      H1   -10.07226  -13.07091  -14.71235
       H    -7.74566  -15.50536  -15.47914
       O    -7.17933  -14.70721  -15.52922
      H1    -6.78312  -14.75978  -16.39637
       H    -6.66903  -13.75409  -12.97038
       O    -7.42691  -13.44111  -12.47991
      H1    -7.99625  -13.13807  -13.22427
       H    -4.75879  -10.38604  -11.31572
       O    -3.95374   -9.94274  -10.97341
      H1    -4.26082   -9.33622  -10.28533

