60
frame 2 | Written by MDAnalysis XYZWriter (release 2.4.3)
       H     4.29119   -2.79149   -1.77774
       O     3.59219   -2.11116   -1.79571
      H1     4.04121   -1.37315   -1.32518
       H     9.11057    1.40082   -5.20057
       O     8.63325    0.61039   -5.52629
      H1     7.86989    0.60647   -4.93592
       H     5.50668   -1.24947   -4.18722
       O     5.44174   -1.99196   -4.77163
      H1     5.87549   -1.73296   -5.61431
       H     5.54771   -5.00600   -2.00221
       O     5.29013   -4.29941   -1.39946
      H1     5.97272   -3.60903   -1.52803
       H     5.63936    1.06238   -4.14993
       O     6.20459    0.33874   -3.80618
      H1     6.59280    0.77830   -3.04240
       H     5.25273    1.18566   -6.75482
       O     4.91242    1.65480   -5.97600
      H1     5.26573    2.53810   -6.05894
       H     6.78969   -3.21837   -4.48206
       O     7.32406   -3.97840   -4.21835
      H1     8.16283   -3.84465   -4.70636
       H     7.91404   -2.04319   -7.10853
       O     6.96413   -2.18590   -7.07609
      H1     6.86616   -3.13713   -7.12938
       H     6.65903    0.73330   -7.55169
       O     6.07933    0.23698   -8.13827
      H1     6.11867   -0.64534   -7.79207
       H     8.46274   -0.37346   -3.56139
       O     8.96646   -0.54436   -2.77854
      H1     9.87953   -0.66720   -3.10566
       H     9.40314   -0.75801   -6.38343
       O     9.65692   -1.37392   -7.07155
      H1     9.49352   -0.91789   -7.90766
       H     2.23431   -0.98468   -7.87404
       O     2.50346   -0.88694   -6.94562
      H1     2.28165    0.02751   -6.73587
       H     4.93761    2.51230   -0.68219
       O     4.62336    1.88945   -1.36156
      H1     3.74120    1.67415   -1.02669
       H     2.09177   -3.31570   -3.46557
       O     1.28549   -3.82266   -3.29966
      H1     0.92910   -3.49040   -2.47803
       H     4.30230   -4.57176   -5.90196
       O     4.21783   -4.22370   -6.80162
      H1     4.03704   -5.00001   -7.33753
       H     7.66774   -3.34791   -2.48651
       O     7.64333   -2.79797   -1.68036
      H1     8.18266   -2.04286   -1.94258
       H     2.85924   -1.57710   -4.96526
       O     2.53413   -1.29426   -4.06581
      H1     3.25882   -1.47347   -3.46140
       H     7.64599    2.14569   -1.15563
       O     7.56807    1.60551   -1.94595
      H1     8.33872    1.05379   -1.96983
       H     6.46118   -0.57698   -0.55412
       O     5.52860   -0.49832   -0.21382
      H1     5.34306    0.35466   -0.62376
       H     2.71800    0.51038   -4.01975
       O     2.91194    1.43705   -4.28069
      H1     3.75112    1.39873   -4.81911

