60
frame 3 | Written by MDAnalysis XYZWriter (release 2.4.3)
       H   -11.39300    3.61965  -13.05993
       O   -11.41659    2.91672  -12.39933
      H1   -11.80112    3.34750  -11.61349
       H    -8.82512    3.81890  -12.81382
       O    -8.45557    4.14894  -12.00224
      H1    -7.75955    3.50344  -11.80097
       H    -7.69729   -0.62212  -12.68575
       O    -7.72956    0.27876  -13.06690
      H1    -8.68327    0.41004  -13.03965
       H   -10.88630    1.24535  -12.93229
       O   -10.51093    0.34803  -12.69021
      H1   -11.22826   -0.23758  -12.91729
       H    -7.83853   -2.92197  -12.21325
       O    -7.53010   -2.14341  -11.70247
      H1    -6.65415   -2.39678  -11.37831
       H    -7.10685    1.54094  -12.11942
       O    -6.67209    2.17898  -11.53259
      H1    -7.02801    1.97487  -10.66050
       H   -10.43178   -1.58481  -10.30476
       O   -11.19454   -2.03238  -10.74135
      H1   -11.79427   -2.28519  -10.03341
       H    -7.46891    1.60288  -16.55621
       O    -6.94313    1.80024  -15.77862
      H1    -6.74526    2.74346  -15.91618
       H    -6.49707   -1.19698  -16.22125
       O    -6.94867   -1.33385  -15.38433
      H1    -6.90938   -0.46948  -14.95520
       H    -5.15260    0.90621  -12.32292
       O    -4.23410    0.80514  -12.59006
      H1    -4.15769   -0.13647  -12.74659
       H   -10.45896    1.72646  -10.83232
       O   -10.91868    1.52193  -10.00450
      H1   -10.38256    0.81203   -9.64868
       H    -4.53909   -1.13290  -10.78174
       O    -4.87104   -2.03428  -11.05250
      H1    -4.28615   -2.24983  -11.80435
       H    -8.25535   -0.95596  -10.28666
       O    -8.68760   -0.63549   -9.50794
      H1    -8.26516    0.20790   -9.32284
       H    -5.67334    4.08380  -14.34874
       O    -4.95148    3.80940  -13.73159
      H1    -5.42874    3.10193  -13.20410
       H    -8.79977   -1.45825  -15.18258
       O    -9.70206   -1.40672  -15.50384
      H1    -9.78027   -1.89247  -16.33156
       H    -6.98693   -3.36936  -15.11450
       O    -7.23746   -4.24335  -14.77796
      H1    -7.15505   -4.79128  -15.58149
       H    -9.94518    1.45396  -15.35474
       O   -10.33982    1.07000  -16.14608
      H1   -10.11662    0.11259  -16.07475
       H   -10.85122   -2.62470  -14.24027
       O   -11.71093   -3.00705  -13.99809
      H1   -11.60030   -3.67300  -13.28604
       H    -7.69372    1.77011   -7.93585
       O    -7.82151    1.80791   -8.89041
      H1    -8.53368    2.45259   -8.96502
       H    -9.38461    3.42255  -14.87019
       O    -9.14996    2.70435  -14.25434
      H1    -8.37365    2.32335  -14.65354

