60
frame 2 | Written by MDAnalysis XYZWriter (release 2.4.3)
       H   -12.88378    0.01746    9.46393
       O   -12.63799    0.65392   10.13673
      H1   -12.78979    0.15786   10.94736
       H    -8.18961    1.10982    7.69761
       O    -8.84075    0.59818    8.16459
      H1    -8.75224    0.88577    9.09663
       H   -11.49211    2.69429   11.86139
       O   -11.57973    2.94973   12.75620
      H1   -12.22717    2.33548   13.11143
       H    -9.72233    4.14071    9.79352
       O    -8.89696    4.53396    9.45404
      H1    -8.94461    5.47804    9.72394
       H   -14.97090    2.20797   12.23348
       O   -15.66307    1.93450   12.85656
      H1   -15.54185    0.97711   12.84747
       H   -12.90424   -1.79559   12.22633
       O   -12.96000   -0.97247   12.74739
      H1   -12.87554   -1.30067   13.64068
       H   -10.51164    7.01608    9.85884
       O    -9.80572    6.91623   10.50721
      H1   -10.13996    6.33857   11.20449
       H    -9.49740    0.09079   13.44765
       O    -9.63265   -0.86040   13.47492
      H1    -9.38645   -1.11012   12.57383
       H   -14.24594    1.85924   14.10240
       O   -13.36786    1.66074   14.38117
      H1   -13.51655    0.86717   14.87264
       H   -11.31027    4.73155   12.55600
       O   -10.75878    5.51061   12.65246
      H1   -10.10112    5.25166   13.30540
       H   -13.41889    4.78913   15.17994
       O   -13.84976    4.01128   15.58653
      H1   -13.29742    3.27074   15.20530
       H    -9.47785    3.23395   16.35468
       O    -9.86239    3.83232   15.71805
      H1    -9.42447    4.66431   15.89212
       H   -12.10885    1.57863    7.76879
       O   -11.65608    0.79621    7.45990
      H1   -10.78403    0.85009    7.83615
       H   -12.60424    6.54756   15.20712
       O   -12.85890    6.34511   14.32144
      H1   -12.06254    6.08371   13.80670
       H   -13.02678    3.63940   11.21683
       O   -13.89760    3.23285   11.12114
      H1   -14.46054    3.99055   11.04482
       H   -11.67617    3.86755    9.41780
       O   -11.20070    3.33229   10.03444
      H1   -11.59525    2.47972    9.85370
       H    -8.85511    2.70395   10.79409
       O    -8.67542    1.83157   11.13652
      H1    -7.70911    1.72305   11.09795
       H   -15.89295    1.39852    9.28595
       O   -15.37504    0.97087   10.01084
      H1   -14.47299    1.18020    9.74517
       H    -7.56564    3.90864   12.65051
       O    -8.17241    4.19270   13.35863
      H1    -8.49415    3.34436   13.69780
       H    -9.80074    2.17261   14.48206
       O    -9.11189    1.67468   13.98470
      H1    -9.32452    1.84515   13.04638

