60
frame 2 | Written by MDAnalysis XYZWriter (release 2.4.3)
       H    -0.83435   -5.35137    5.64019
       O    -0.76831   -5.84348    6.45961
      H1    -0.20047   -6.62724    6.25964
       H    -2.97561   -2.62955    9.52868
       O    -3.68070   -2.79045    8.87282
      H1    -3.64933   -2.03503    8.31500
       H    -0.01883    0.29971    5.36175
       O    -0.00109    0.80630    6.18905
      H1     0.95123    0.82599    6.40844
       H    -2.32757    0.48633    3.14820
       O    -2.36916    0.46748    4.09174
      H1    -3.27214    0.76569    4.36641
       H    -3.19673   -0.64619    6.48130
       O    -3.99978   -0.71553    6.99831
      H1    -4.52021   -1.39992    6.53401
       H    -0.00787   -4.50607    2.89135
       O    -0.29675   -5.15616    3.56948
      H1     0.36531   -5.82164    3.50524
       H     1.05198   -3.17994    8.02765
       O     0.10888   -3.46620    8.10181
      H1     0.12173   -4.25763    7.51953
       H    -5.71088   -1.09358    3.17655
       O    -5.01283   -0.47154    3.41218
      H1    -4.26063   -1.05339    3.63110
       H    -2.48308   -6.09329    7.03668
       O    -3.36174   -6.22014    7.42513
      H1    -3.14620   -6.28596    8.36425
       H    -1.93086   -6.01709    3.94935
       O    -2.77666   -6.46430    3.95752
      H1    -3.34035   -5.81010    4.42705
       H    -4.11268   -4.73158    6.24491
       O    -4.50132   -4.40452    5.43027
      H1    -5.26780   -3.86824    5.73829
       H    -6.87996   -1.89220    5.92635
       O    -6.10181   -2.36634    6.27673
      H1    -6.31502   -2.53077    7.19677
       H    -0.79280    2.24665    5.48116
       O    -1.34849    2.77376    4.89887
      H1    -1.94582    2.07991    4.52836
       H    -0.00572   -1.68000    5.06701
       O     0.72632   -1.35530    4.49439
      H1     1.48367   -1.31969    5.06925
       H    -2.41673   -0.60891    0.73086
       O    -2.35977    0.30491    1.00599
      H1    -3.27255    0.63136    0.88642
       H     0.32057   -2.49951    3.08641
       O     0.07144   -2.90622    2.24399
      H1     0.83855   -3.49202    2.11712
       H    -1.21618   -2.68966    1.04807
       O    -1.90347   -2.39681    0.49652
      H1    -2.12194   -3.18149   -0.06369
       H    -1.23308   -0.92015    6.53972
       O    -1.24393   -1.77982    6.07614
      H1    -0.94127   -2.34636    6.80335
       H    -5.08527   -3.79927    2.44691
       O    -4.68759   -3.29335    1.72844
      H1    -3.90608   -2.85971    2.12005
       H    -3.56261   -3.07859    4.59665
       O    -2.99620   -2.42632    4.11756
      H1    -2.37059   -2.12118    4.76169

