60
frame 0 | Written by MDAnalysis XYZWriter (release 2.4.3)
       H   -12.24237   10.21074   -1.81406
       O   -12.35580   10.48284   -2.75980
      H1   -12.87059    9.75320   -3.14536
       H   -12.49993    7.59472   -5.96005
       O   -12.31104    8.55240   -5.94238
      H1   -11.33959    8.58555   -5.86750
       H    -8.95754    9.88113   -0.54505
       O    -9.14681   10.53654    0.13096
      H1    -8.30644   10.94573    0.30233
       H   -13.27965   11.76824   -4.31044
       O   -14.18127   12.09034   -4.27190
      H1   -14.41813   11.88887   -3.35180
       H   -10.60015   12.90528   -1.95997
       O   -11.50328   13.25411   -1.89226
      H1   -12.07361   12.55301   -2.20143
       H   -10.59912   12.21945   -7.45569
       O    -9.92610   12.70333   -7.94871
      H1   -10.37767   13.53142   -8.10679
       H    -7.92787   14.21622   -4.74142
       O    -7.09486   13.77750   -4.42587
      H1    -6.63800   14.55502   -4.07167
       H   -13.74196    8.80865   -4.98835
       O   -14.12021    8.92250   -4.10476
      H1   -15.06889    9.07761   -4.30779
       H    -8.37293   12.92198   -2.08321
       O    -8.93123   12.15770   -2.17824
      H1    -8.94411   11.73734   -1.30135
       H   -13.72218   11.93832   -0.64955
       O   -14.34870   12.03181   -1.39622
      H1   -14.52293   12.98556   -1.40245
       H    -9.65864   15.63130   -1.96430
       O    -9.94094   15.44483   -2.86597
      H1   -10.67588   14.84179   -2.74958
       H    -6.78200   11.97606   -4.25055
       O    -7.05496   11.03240   -4.21642
      H1    -7.96758   11.08898   -3.90314
       H   -10.48900   10.72510   -6.08218
       O   -10.17208   10.06260   -6.68647
      H1    -9.22463   10.17350   -6.82028
       H   -10.92054   12.72793   -4.57022
       O   -11.31766   11.88860   -4.88440
      H1   -11.43133   11.32173   -4.11106
       H    -9.47712   13.98558   -6.48523
       O    -9.72792   14.15463   -5.58899
      H1    -9.81149   15.11252   -5.60989
       H   -12.04954   10.04330    0.65654
       O   -12.04529    9.27861    0.09118
      H1   -12.78499    8.77107    0.40635
       H    -7.14715   11.24669   -7.53734
       O    -7.62975   10.70918   -6.89951
      H1    -7.16176   10.90879   -6.08232
       H   -11.68962    8.47360   -1.39278
       O   -11.45498    7.70990   -1.93240
      H1   -10.50967    7.74964   -1.86306
       H   -12.10545   14.11153   -6.42375
       O   -12.71758   13.53159   -6.88408
      H1   -12.84360   12.86885   -6.18070
       H   -15.26586   14.67432   -3.39322
       O   -14.62074   14.67770   -4.09866
      H1   -14.50383   13.73030   -4.36357

