60
frame 0 | Written by MDAnalysis XYZWriter (release 2.4.3)
       H    -4.37704   -3.91033   10.58577
       O    -5.05839   -3.96878    9.91417
      H1    -4.74770   -4.73498    9.44948
       H   -10.07299   -1.39827    7.44305
       O   -10.62843   -1.62341    6.73466
      H1   -10.01021   -2.01288    6.12801
       H    -8.20057   -8.36665    9.48721
       O    -7.30767   -8.57434    9.68398
      H1    -6.78096   -7.80590    9.61342
       H    -2.40554   -4.85648   12.30127
       O    -2.61312   -4.43958   11.45788
      H1    -1.98087   -4.80049   10.78420
       H    -6.23819   -4.61145   12.78770
       O    -6.35663   -3.69584   12.46230
      H1    -6.11993   -3.76789   11.48840
       H    -7.09287   -8.61678    6.91349
       O    -7.39920   -7.71179    6.67990
      H1    -8.26212   -7.66745    7.10782
       H   -11.23012   -5.94148    6.54620
       O   -10.29432   -6.03284    6.35209
      H1   -10.09051   -5.15954    6.06066
       H    -6.16981   -5.36213   14.74057
       O    -5.99047   -5.77934   13.85934
      H1    -6.49158   -6.57080   13.97790
       H    -5.30478   -2.75511   13.90344
       O    -4.87116   -1.88652   14.12949
      H1    -4.96280   -1.90757   15.09909
       H    -6.14049   -1.22862    8.98410
       O    -6.62683   -0.60379    9.56425
      H1    -7.07798    0.04644    8.96642
       H    -9.73498   -0.06680    9.88646
       O    -9.69147    0.07450    8.96147
      H1    -8.85158    0.54752    8.84583
       H    -7.73147   -2.54202    9.19779
       O    -7.52361   -3.42905    8.93991
      H1    -6.65602   -3.63035    9.31558
       H    -9.05918   -3.09531    4.37547
       O    -9.41456   -3.63773    5.10965
      H1    -8.58527   -4.16305    5.24946
       H    -6.98129   -4.39754    7.27344
       O    -6.72517   -4.88839    6.50375
      H1    -7.17394   -5.75609    6.56356
       H   -12.44159   -2.67319   10.63961
       O   -12.09334   -3.32604   11.33194
      H1   -11.14009   -3.35688   11.20064
       H    -9.04218   -1.54518   11.48370
       O    -8.99926   -0.56045   11.51911
      H1    -8.02289   -0.46924   11.43519
       H    -4.30811   -6.39387    7.96658
       O    -4.09437   -5.63545    7.39292
      H1    -4.98717   -5.38516    7.01637
       H    -6.11298    0.12250    5.40550
       O    -5.29487   -0.27941    5.10209
      H1    -5.05683   -0.71072    5.94774
       H    -3.98506   -8.55658    9.24009
       O    -4.34686   -7.63128    9.34213
      H1    -3.81098   -7.30634   10.09404
       H    -9.01984   -3.71993   12.09390
       O    -9.33308   -3.50853   11.20555
      H1    -8.55904   -3.57213   10.55170

