60
frame 3 | Written by MDAnalysis XYZWriter (release 2.4.3)
       H     2.77814    4.15871   -7.95189
       O     1.87552    4.45205   -7.89226
      H1     2.01275    5.39322   -7.69093
       H    11.06837    1.27555   -6.82298
       O    10.71211    0.36435   -6.73239
      H1    10.78831    0.19155   -5.79947
       H     6.83861    4.85473   -9.07015
       O     6.05704    5.21396   -9.51576
      H1     5.36900    5.00433   -8.87389
       H     7.54713   -1.00949   -5.14775
       O     7.93060   -1.87709   -5.16506
      H1     7.85034   -2.08161   -6.11844
       H     6.51056    3.85592  -11.60642
       O     7.31254    3.38555  -11.86971
      H1     7.92108    3.49961  -11.13082
       H    11.41328    2.97642   -5.57076
       O    11.71928    2.84744   -6.46931
      H1    12.32480    2.11841   -6.34154
       H     9.13961    0.98615   -7.42701
       O     8.50982    1.57653   -7.87391
      H1     8.81689    1.59151   -8.78646
       H     6.28092    1.30698   -5.06087
       O     6.48262    0.56826   -4.47996
      H1     6.40741    0.91467   -3.54857
       H     7.55250    3.65877   -2.98110
       O     8.08716    4.27604   -3.47903
      H1     7.50850    4.50109   -4.18646
       H     6.91347    2.20751   -6.60255
       O     5.98820    2.43191   -6.38697
      H1     5.96640    3.37122   -6.19999
       H    10.87589    3.88196   -3.00082
       O    10.54808    3.58704   -3.85789
      H1     9.58861    3.55575   -3.77175
       H     4.83961    2.85262   -8.05253
       O     4.22161    3.42171   -8.56840
      H1     3.99435    2.89640   -9.33622
       H     6.66568    5.84868   -6.06941
       O     6.02594    5.14347   -5.90647
      H1     5.25767    5.51854   -5.49073
       H     8.86125    4.65034   -7.58784
       O     8.55585    4.52820   -8.50507
      H1     8.72479    3.60918   -8.68847
       H     4.08896    0.46742   -9.70575
       O     5.00686    0.24712   -9.51805
      H1     5.43243    0.55477  -10.32040
       H     4.47974   -1.31718   -5.72153
       O     5.02192   -1.57532   -4.95557
      H1     5.31643   -0.76377   -4.60723
       H     5.14836    3.06229   -2.45938
       O     4.27180    3.42847   -2.37577
      H1     3.69465    2.67926   -2.36382
       H     9.35935    6.08568   -5.77395
       O     9.84212    5.26999   -5.81563
      H1     9.84351    5.00028   -4.89009
       H     9.48971    2.39989  -11.31689
       O     9.30494    2.61303  -10.38110
      H1    10.17906    2.94885  -10.06879
       H     7.41289    3.15211   -1.05614
       O     6.94110    2.61993   -1.71994
      H1     7.50734    1.85182   -1.79033

