60
frame 2 | Written by MDAnalysis XYZWriter (release 2.4.3)
       H     2.87669    8.72584   -2.42029
       O     2.54410    8.63853   -1.52535
      H1     2.83186    7.75351   -1.23254
       H     1.97703   12.03152   -2.63550
       O     1.20015   11.45114   -2.51197
      H1     0.42644   12.02157   -2.54760
       H     2.11403    6.84871   -4.42903
       O     3.01943    6.71174   -4.74078
      H1     3.32670    6.07378   -4.06383
       H     6.25304   10.63472   -2.29128
       O     7.20059   10.45126   -2.25281
      H1     7.36079   10.27673   -1.31880
       H     2.97643   13.72635   -2.90693
       O     3.49774   13.14187   -2.32649
      H1     4.37705   13.20532   -2.68627
       H     7.25976    8.87963   -4.06320
       O     7.67487    8.02383   -3.92921
      H1     8.53116    8.24918   -3.55586
       H     4.17781    5.67726   -1.59592
       O     4.31926    6.48313   -1.05561
      H1     5.13480    6.86176   -1.42558
       H     0.85521    9.61575   -7.28874
       O     1.64190   10.04199   -7.60772
      H1     2.16765    9.31453   -7.92598
       H     4.53274   12.56514   -5.09141
       O     5.16793   12.84155   -4.40625
      H1     5.95662   12.93355   -4.93677
       H     0.57499   11.02804   -4.32386
       O    -0.26992   10.81450   -4.74197
      H1    -0.90237   10.63897   -3.98250
       H     6.47514   10.17978   -7.56996
       O     5.56467    9.93683   -7.83023
      H1     5.67317    9.28918   -8.50324
       H     2.81718   10.13888   -4.64811
       O     3.40161    9.56518   -4.11399
      H1     3.29486    8.71196   -4.59636
       H     2.30632   12.58179   -5.79996
       O     2.77081   11.72516   -5.67164
      H1     2.44154   11.24073   -6.45196
       H    -0.78658    8.37708   -6.45308
       O    -0.93870    9.24782   -6.88496
      H1    -0.80235    9.82841   -6.12222
       H     1.25445    9.67840    0.34585
       O     0.71852   10.47584    0.04699
      H1     1.20453   10.69821   -0.76319
       H     5.89004    9.40203   -5.77262
       O     6.03575    9.89994   -4.96967
      H1     5.19894    9.93659   -4.50431
       H    -0.50342    8.84028   -2.39076
       O     0.20806    8.18754   -2.33999
      H1     0.95244    8.68523   -1.96992
       H     8.75675   12.18274   -4.23955
       O     7.83535   12.17009   -4.46528
      H1     7.45909   11.68322   -3.71742
       H     0.22462    6.73723   -5.13999
       O     0.36539    7.69883   -5.14304
      H1     0.37643    7.89080   -4.19379
       H     3.85458    9.86940   -1.38680
       O     4.42453   10.67952   -1.41400
      H1     3.84796   11.29917   -1.92655

