60
frame 3 | Written by MDAnalysis XYZWriter (release 2.4.3)
       H    -4.38912   -2.37478  -17.47007
       O    -5.30376   -2.61191  -17.70039
      H1    -5.35245   -3.52323  -17.42123
       H   -10.04131   -5.09889  -14.73446
       O    -9.35217   -5.69112  -14.33456
      H1    -8.55095   -5.18254  -14.41528
       H    -7.69729   -0.62212  -12.68575
       O    -7.72956    0.27876  -13.06690
      H1    -8.68327    0.41004  -13.03965
       H    -7.83853   -2.92197  -12.21325
       O    -7.53010   -2.14341  -11.70247
      H1    -6.65415   -2.39678  -11.37831
       H    -2.78690   -4.00476  -15.26864
       O    -2.91462   -3.15819  -15.71841
      H1    -2.16045   -3.15763  -16.32310
       H    -7.10685    1.54094  -12.11942
       O    -6.67209    2.17898  -11.53259
      H1    -7.02801    1.97487  -10.66050
       H    -7.46891    1.60288  -16.55621
       O    -6.94313    1.80024  -15.77862
      H1    -6.74526    2.74346  -15.91618
       H    -6.49707   -1.19698  -16.22125
       O    -6.94867   -1.33385  -15.38433
      H1    -6.90938   -0.46948  -14.95520
       H    -9.30624    1.31790  -17.49394
       O    -8.50039    1.60767  -17.98306
      H1    -8.49295    1.08025  -18.80521
       H   -10.53799   -2.39046  -18.54655
       O    -9.96057   -2.91476  -17.96308
      H1    -9.12412   -2.76185  -18.41976
       H    -5.15260    0.90621  -12.32292
       O    -4.23410    0.80514  -12.59006
      H1    -4.15769   -0.13647  -12.74659
       H    -3.91264   -5.63333  -14.47160
       O    -4.34030   -4.97465  -13.91348
      H1    -5.12926   -4.80164  -14.42351
       H    -8.79977   -1.45825  -15.18258
       O    -9.70206   -1.40672  -15.50384
      H1    -9.78027   -1.89247  -16.33156
       H    -2.66749   -1.91194  -13.29403
       O    -3.60547   -1.75314  -13.41693
      H1    -3.75960   -2.33574  -14.19664
       H    -6.98693   -3.36936  -15.11450
       O    -7.23746   -4.24335  -14.77796
      H1    -7.15505   -4.79128  -15.58149
       H    -9.94518    1.45396  -15.35474
       O   -10.33982    1.07000  -16.14608
      H1   -10.11662    0.11259  -16.07475
       H    -3.84568   -1.06443  -15.58638
       O    -3.81967   -0.55562  -16.40397
      H1    -3.95094    0.34537  -16.05826
       H   -10.85122   -2.62470  -14.24027
       O   -11.71093   -3.00705  -13.99809
      H1   -11.60030   -3.67300  -13.28604
       H    -9.38461    3.42255  -14.87019
       O    -9.14996    2.70435  -14.25434
      H1    -8.37365    2.32335  -14.65354
       H    -5.74782   -5.81207  -17.25965
       O    -5.29016   -5.09546  -16.82799
      H1    -4.35500   -5.37452  -16.93295

