60
frame 2 | Written by MDAnalysis XYZWriter (release 2.4.3)
       H     1.52316   -6.43994   12.23744
       O     1.78723   -5.74368   11.56485
      H1     1.32371   -5.98451   10.76474
       H    -3.72347   -5.06361   11.63241
       O    -2.89684   -4.91544   12.13463
      H1    -3.03244   -4.02826   12.48431
       H    -2.97561   -2.62955    9.52868
       O    -3.68070   -2.79045    8.87282
      H1    -3.64933   -2.03503    8.31500
       H    -2.89254   -0.97870   11.97398
       O    -3.09166   -0.10164   11.59785
      H1    -4.06725   -0.02826   11.67338
       H    -6.02733   -7.47499   11.94875
       O    -6.66036   -6.81179   12.20386
      H1    -7.14597   -6.71089   11.39089
       H    -2.48308   -6.09329    7.03668
       O    -3.36174   -6.22014    7.42513
      H1    -3.14620   -6.28596    8.36425
       H    -5.88875   -4.64435   10.36221
       O    -5.65210   -4.51390   11.28120
      H1    -5.85774   -5.35276   11.69674
       H    -1.99687   -8.96809   11.89581
       O    -2.22234   -9.70273   11.34145
      H1    -1.56443   -9.66375   10.60060
       H     1.53030   -4.33507   13.27983
       O     0.90115   -3.91006   13.86479
      H1     1.35342   -3.71087   14.66328
       H    -0.97382   -2.46087   11.22499
       O    -1.35508   -2.43037   10.34220
      H1    -0.61851   -2.69290    9.78653
       H    -5.25247   -2.28207    9.66233
       O    -5.94505   -1.94008   10.26643
      H1    -6.00888   -2.66806   10.90260
       H    -0.30809   -6.21602   15.89200
       O    -0.74433   -5.46466   15.47582
      H1    -0.10352   -4.99979   14.92563
       H    -0.54254   -1.04637   13.14896
       O    -0.79006   -1.97557   13.08132
      H1     0.01962   -2.50600   12.99868
       H    -1.57016   -2.82167   14.70202
       O    -2.17852   -2.97030   15.42030
      H1    -1.82698   -3.82926   15.69983
       H    -0.83751   -7.02868   13.73321
       O    -1.46510   -7.36730   13.10734
      H1    -2.01287   -6.64042   12.81390
       H    -4.78357   -2.15085   12.79939
       O    -3.96732   -2.57581   13.02225
      H1    -3.68472   -2.07620   13.80721
       H    -3.71687   -9.32655   13.99355
       O    -2.77652   -9.34398   14.29006
      H1    -2.45157   -8.49380   13.92206
       H    -3.35949   -8.20277   10.10186
       O    -3.28136   -7.21760   10.14178
      H1    -2.34123   -7.01734   10.26424
       H    -1.92251   -5.14223   10.32690
       O    -1.31410   -5.43744    9.65070
      H1    -1.17163   -4.67355    9.06967
       H    -3.75256   -5.46459   14.67744
       O    -3.51479   -5.92405   15.49609
      H1    -2.56183   -5.77338   15.61175

