60
frame 0 | Written by MDAnalysis XYZWriter (release 2.4.3)
       H   -13.03673    5.27214  -13.63854
       O   -12.52096    4.56156  -13.26341
      H1   -11.58722    4.77898  -13.49170
       H   -14.34904    1.92596  -17.21754
       O   -14.94779    2.47811  -17.76954
      H1   -15.03249    1.97947  -18.57373
       H    -9.12134    2.40647  -13.79420
       O    -8.29544    2.04030  -13.44130
      H1    -8.34586    1.11176  -13.65200
       H    -9.89951    0.62877  -10.17240
       O    -9.40106    1.43682  -10.31095
      H1    -9.19317    1.36914  -11.24930
       H   -11.31643    4.89476  -10.57947
       O   -10.92679    4.14155  -10.10383
      H1   -11.69524    3.72964   -9.67937
       H    -8.23459   -0.22662  -15.34397
       O    -7.67980   -0.37121  -14.60694
      H1    -8.03876   -1.17294  -14.18978
       H   -16.24249    1.26727  -13.55840
       O   -15.42411    1.77270  -13.73471
      H1   -15.61458    2.62687  -13.36190
       H   -13.93453    4.15097  -17.68331
       O   -13.16441    4.69330  -17.39254
      H1   -13.40380    5.57509  -17.73041
       H   -10.57874   -0.57796  -14.55998
       O   -10.77217   -0.77703  -15.48210
      H1   -11.63048   -0.38357  -15.62751
       H   -11.18363    4.25929  -17.02413
       O   -10.37609    3.87838  -16.64949
      H1   -10.01109    3.40584  -17.40457
       H    -8.85326    0.98569  -17.56844
       O    -8.18264    1.14284  -16.91067
      H1    -8.03775    2.07145  -17.02683
       H    -9.98192    5.54827  -14.83689
       O   -10.03544    5.56051  -13.87245
      H1    -9.61933    6.43994  -13.70961
       H    -9.95003   -1.56384  -18.60913
       O   -10.46082   -0.79557  -18.35339
      H1   -10.31036   -0.69119  -17.39703
       H   -13.13435   -1.55779  -12.63155
       O   -13.90897   -2.04869  -12.35485
      H1   -14.38363   -2.14012  -13.20872
       H    -6.45525    4.12001  -12.46287
       O    -6.15490    3.19732  -12.42365
      H1    -6.81317    2.77477  -12.94920
       H   -11.16268    2.02881  -11.00952
       O   -11.85635    1.45294  -11.33926
      H1   -12.60811    2.04080  -11.19211
       H   -11.87746   -0.00323  -12.44437
       O   -11.50228   -0.86443  -12.64857
      H1   -10.66682   -0.88238  -12.16634
       H   -14.08051    0.77970  -15.46748
       O   -13.25111    0.89853  -15.91612
      H1   -12.70748    1.40306  -15.32624
       H   -13.39743    3.65825  -12.02269
       O   -13.96971    3.00379  -11.53777
      H1   -14.41036    3.62850  -10.92507
       H   -11.67647    2.43774  -13.80940
       O   -11.02816    2.09087  -14.47314
      H1   -10.91177    2.79860  -15.13845

