60
frame 2 | Written by MDAnalysis XYZWriter (release 2.4.3)
       H   -11.18503   18.15106   -3.81140
       O   -11.28087   17.29151   -3.40657
      H1   -12.13783   16.97269   -3.71607
       H    -6.59279   15.70206  -10.19874
       O    -6.56771   15.29016  -11.05926
      H1    -6.62574   14.33785  -10.83318
       H    -9.92844   18.30392   -7.01384
       O   -10.12330   17.47675   -7.48445
      H1   -10.82091   17.77716   -8.10374
       H   -15.16152   15.57773   -9.88494
       O   -15.85550   15.48400  -10.53483
      H1   -15.41995   15.18558  -11.33898
       H   -12.87974   16.45773   -6.27190
       O   -13.28363   17.29622   -6.51637
      H1   -13.03292   17.47313   -7.44227
       H    -8.46877   18.69599  -10.75336
       O    -7.50064   18.67716  -10.76594
      H1    -7.25108   18.01807  -10.10884
       H    -8.20962   17.21561   -8.15666
       O    -7.37410   16.95964   -8.55584
      H1    -6.77876   16.87073   -7.81960
       H   -12.21374   15.02549   -9.88185
       O   -11.66544   15.59691   -9.34965
      H1   -10.81806   15.63598   -9.79371
       H    -8.10625   14.26126   -6.78967
       O    -8.12513   14.02448   -7.74722
      H1    -9.02646   13.71986   -7.85777
       H    -8.53465   15.90321   -3.85983
       O    -8.53658   15.67494   -2.91301
      H1    -9.29879   15.11538   -2.83427
       H    -8.06205   17.39880   -5.72496
       O    -8.11467   16.43706   -5.52140
      H1    -8.96049   16.20107   -5.86350
       H   -14.47159   14.37983   -7.41818
       O   -14.22533   15.00262   -8.10554
      H1   -14.29965   15.85461   -7.61250
       H   -14.24895   18.65660  -12.67628
       O   -13.75782   18.04687  -12.09135
      H1   -14.04725   17.13164  -12.37902
       H   -10.79033   18.63926  -11.23405
       O   -10.64518   18.08881  -12.01279
      H1   -11.50275   17.70295  -12.28048
       H    -9.89379   13.19732   -5.64571
       O    -9.16363   13.06476   -5.01176
      H1    -9.55653   13.41858   -4.21666
       H    -9.79951   16.87195  -11.37386
       O    -9.67721   15.96602  -11.02654
      H1    -8.72712   15.80867  -11.05444
       H   -13.86667   17.79471   -9.96038
       O   -13.12047   17.77943   -9.31085
      H1   -12.65749   16.96793   -9.59550
       H   -11.34094   13.09691   -7.79285
       O   -10.77805   13.73743   -7.35392
      H1   -10.88332   14.47704   -7.95027
       H   -13.94848   15.03862   -4.26430
       O   -13.19301   15.14002   -4.81614
      H1   -13.13371   14.33693   -5.36847
       H    -9.74527   14.20161  -11.56117
       O    -9.69992   13.38092  -12.07020
      H1    -9.95131   13.65444  -12.96787

