60
frame 3 | Written by MDAnalysis XYZWriter (release 2.4.3)
       H   -19.62365    9.62307  -11.31743
       O   -19.18038    9.73137  -12.15899
      H1   -18.26511    9.52419  -12.01279
       H   -19.14228   12.95256  -13.52504
       O   -18.50437   12.84983  -12.80585
      H1   -19.05713   12.56261  -12.07955
       H   -13.91287    6.04698  -18.42837
       O   -13.49434    6.87972  -18.09184
      H1   -14.20254    7.19765  -17.48008
       H   -12.10555    8.26187  -16.38551
       O   -11.72727    8.80669  -15.69070
      H1   -10.79729    8.97062  -15.92214
       H   -13.60378   14.42038  -16.46950
       O   -14.18881   14.80666  -17.14828
      H1   -13.61633   14.81659  -17.90695
       H   -15.61114   13.51605  -16.51672
       O   -16.16588   13.01787  -15.90625
      H1   -16.81498   13.61721  -15.53793
       H   -11.79038   14.17909  -14.89257
       O   -12.04901   13.76473  -15.71723
      H1   -11.59427   14.37136  -16.32624
       H   -15.64565    8.91523  -10.66665
       O   -15.59175    9.32067  -11.54727
      H1   -14.68448    9.13402  -11.82611
       H   -17.92977   14.71846  -12.20397
       O   -17.14208   15.22683  -12.38244
      H1   -16.49067   14.54014  -12.63088
       H   -15.68247    8.24801  -15.84999
       O   -15.52125    7.41749  -16.30555
      H1   -15.35332    6.78892  -15.59697
       H   -13.78191   11.28001  -12.54998
       O   -13.73381   11.94524  -11.84062
      H1   -13.01605   11.59176  -11.31955
       H   -14.89277   13.15779  -12.56150
       O   -15.06232   13.90942  -13.16853
      H1   -15.43385   13.49930  -13.93976
       H   -14.58019   10.65689  -16.57096
       O   -15.31354   10.15144  -16.18028
      H1   -15.88389   10.86045  -15.85843
       H   -17.18924    7.52639  -12.14458
       O   -17.19329    7.01396  -12.95937
      H1   -17.72549    6.27063  -12.81327
       H   -18.94905   14.69963  -14.74072
       O   -18.02601   14.84993  -14.96642
      H1   -17.68678   15.09406  -14.07667
       H   -17.08039   11.87164  -13.15080
       O   -16.40576   11.22576  -13.42709
      H1   -16.13176   10.80454  -12.60404
       H   -17.07686   10.20495  -18.45503
       O   -16.82080   11.10364  -18.23248
      H1   -16.23551   11.01276  -17.48403
       H   -12.68715   10.63270  -16.13590
       O   -12.87814   11.22110  -16.87049
      H1   -12.57703   12.09333  -16.57942
       H   -14.50448    9.99101  -13.92661
       O   -13.60416    9.79944  -13.71518
      H1   -13.27746    9.35190  -14.51937
       H   -16.76016    6.83801  -17.50242
       O   -17.43560    6.50196  -18.11795
      H1   -18.15532    6.18058  -17.55925

