60
frame 2 | Written by MDAnalysis XYZWriter (release 2.4.3)
       H    11.96806   -9.95974   -7.16118
       O    12.18052  -10.87498   -7.33168
      H1    12.26600  -10.91691   -8.30310
       H    12.91624   -6.48985   -2.03555
       O    12.45981   -6.01373   -2.75869
      H1    13.21915   -5.77544   -3.29630
       H    13.85760  -10.53510   -6.35999
       O    14.76451  -10.27043   -6.00755
      H1    15.12008   -9.66020   -6.66405
       H    10.57896  -11.29421   -5.15236
       O    10.57402  -10.71596   -4.37697
      H1    10.39363  -11.30137   -3.63904
       H    13.21956   -7.53538    0.15151
       O    12.55272   -6.83375    0.02567
      H1    11.81303   -7.31505   -0.30065
       H    16.94382  -10.03364   -0.40208
       O    17.83417  -10.36405   -0.31064
      H1    18.36874   -9.57320   -0.20430
       H    11.35797   -7.43314   -3.39663
       O    10.52580   -7.82669   -3.75912
      H1    10.68111   -8.76783   -3.72565
       H    13.62667  -12.64293   -4.00766
       O    12.97631  -12.32185   -3.37369
      H1    12.15197  -12.68252   -3.72025
       H    16.36993   -6.81496   -7.51717
       O    16.04451   -7.40543   -6.85203
      H1    15.09418   -7.22850   -6.79634
       H    15.58237  -12.76298   -4.70267
       O    14.91001  -13.35198   -5.13069
      H1    15.14661  -13.21949   -6.06122
       H    10.81481   -8.18452   -5.58191
       O    11.04970   -8.39987   -6.49261
      H1    10.22171   -8.35863   -6.94834
       H    10.43501   -9.36532   -0.55980
       O    11.36022   -9.11465   -0.45782
      H1    11.75968   -9.96391   -0.25669
       H    14.55861   -9.08297   -0.77061
       O    15.05486   -8.51127   -0.20284
      H1    15.44653   -7.80747   -0.71364
       H    17.86098   -8.94923   -3.69673
       O    17.40663   -8.15423   -4.05642
      H1    16.48820   -8.41769   -4.10542
       H    17.11526   -7.01050   -1.27636
       O    16.38737   -6.83898   -1.92620
      H1    16.80317   -7.17341   -2.72137
       H    19.15061  -10.69490   -3.09905
       O    18.21687  -10.44160   -3.04908
      H1    18.08771  -10.28133   -2.10940
       H    14.33254  -10.73805   -1.90870
       O    13.88961  -10.00513   -2.37903
      H1    13.30827  -10.47267   -2.97136
       H    13.43471   -7.39847   -5.59061
       O    13.33647   -6.97408   -6.44416
      H1    12.55558   -7.40647   -6.81613
       H    14.96289   -6.34806   -4.54949
       O    14.60732   -5.47320   -4.47659
      H1    15.07089   -4.94402   -5.12713
       H    14.19745   -8.71440   -3.56201
       O    14.62213   -8.23679   -4.26354
      H1    14.85546   -8.95258   -4.84095

