60
frame 2 | Written by MDAnalysis XYZWriter (release 2.4.3)
       H     7.33756  -14.37939   -6.30290
       O     7.19171  -15.24769   -5.96398
      H1     8.09802  -15.62865   -5.90373
       H     6.98724  -14.24642   -2.45190
       O     6.77843  -15.16147   -2.08499
      H1     7.67398  -15.55778   -2.00597
       H     5.28711  -17.70503    0.30624
       O     5.32085  -17.87545   -0.65950
      H1     6.13513  -18.37243   -0.78458
       H     3.50807  -13.88396   -5.06297
       O     2.60845  -13.77563   -4.71826
      H1     2.69452  -13.44247   -3.81553
       H     8.43145  -10.54930   -0.53220
       O     8.96938   -9.99395   -1.09583
      H1     8.41090   -9.22370   -1.29187
       H     7.20864  -11.84223   -3.09899
       O     6.58510  -12.23847   -2.48415
      H1     5.88724  -11.55887   -2.44224
       H     6.69507  -13.47376    0.35409
       O     6.26341  -14.08170    0.96974
      H1     5.70632  -14.70290    0.41418
       H     6.13652  -16.39234   -3.16666
       O     5.84593  -17.21607   -3.57537
      H1     6.24617  -17.93434   -3.03287
       H     3.89360  -10.58268   -0.45895
       O     4.34553  -10.94345   -1.24927
      H1     4.16530  -10.26735   -1.92225
       H     3.08257  -15.49172   -4.10860
       O     3.04127  -16.42930   -3.82017
      H1     3.99727  -16.63059   -3.62679
       H    10.14675  -12.90614   -1.73838
       O     9.89638  -13.04806   -2.67145
      H1     9.89552  -14.02956   -2.72091
       H    10.28056  -15.90558   -1.94494
       O     9.49841  -15.66003   -2.41474
      H1     9.69944  -15.94677   -3.30473
       H     3.77335  -15.67067    0.54215
       O     3.84914  -15.20925   -0.30281
      H1     4.03828  -15.91929   -0.96586
       H     7.82272  -15.29283    0.54302
       O     8.59398  -15.66186    0.96247
      H1     8.27765  -16.00916    1.81903
       H    10.35942  -15.32051   -5.29969
       O     9.67124  -15.98278   -5.17541
      H1    10.01381  -16.76674   -5.64989
       H     8.66919  -11.26966   -4.35160
       O     7.78857  -11.20419   -4.75365
      H1     7.86902  -11.77916   -5.52285
       H     5.13186  -12.47171   -5.55287
       O     4.71721  -11.75981   -6.03411
      H1     5.48722  -11.26117   -6.38004
       H     2.37156  -12.48613   -1.70513
       O     2.21338  -13.45735   -1.81984
      H1     2.80467  -13.89577   -1.20369
       H     5.97537  -14.48463   -4.74082
       O     5.38514  -13.79936   -4.40397
      H1     5.90188  -13.39810   -3.70977
       H     7.49033  -11.91797   -0.75406
       O     7.62435  -11.91016    0.20289
      H1     6.79455  -11.47485    0.52401

