60
frame 3 | Written by MDAnalysis XYZWriter (release 2.4.3)
       H    -5.69081   15.82459  -11.16242
       O    -5.83159   16.03705  -12.09052
      H1    -6.80119   16.20585  -12.14732
       H    -8.45990   16.06376  -11.11024
       O    -8.46069   15.50885  -11.92755
      H1    -8.05299   14.64579  -11.64516
       H    -6.34162   13.78531   -7.53854
       O    -5.49868   13.49977   -7.91763
      H1    -5.05843   12.98627   -7.26443
       H    -1.62621   14.63919  -10.19795
       O    -1.94456   15.54110  -10.13912
      H1    -1.94266   15.87833  -11.05840
       H    -7.58605   16.36720   -9.05669
       O    -8.16540   16.93456   -9.62875
      H1    -8.90354   17.12470   -9.03399
       H    -5.69505   13.92068   -3.65924
       O    -6.16674   13.31670   -4.26094
      H1    -7.06507   13.69623   -4.27974
       H    -7.91607   14.67538   -6.50733
       O    -7.76925   14.80662   -7.44595
      H1    -8.42546   14.29055   -7.92752
       H    -7.97595   16.35010   -3.95636
       O    -8.05148   15.50040   -3.48559
      H1    -8.97228   15.44065   -3.23097
       H    -9.21764   17.60703   -6.59589
       O    -9.84797   18.09211   -7.11490
      H1   -10.57000   18.29953   -6.53613
       H    -6.74151   17.17693   -5.82302
       O    -7.64162   17.39578   -5.53013
      H1    -7.64100   18.36582   -5.48419
       H    -5.63254   18.34753   -1.71165
       O    -5.40984   18.80016   -2.54044
      H1    -5.22387   18.06650   -3.12054
       H     1.02146   16.74829   -9.51208
       O     0.38170   16.90800   -8.81161
      H1    -0.41671   16.43917   -9.07568
       H    -5.19009   15.92136   -7.15902
       O    -5.14348   16.66885   -6.54349
      H1    -5.24398   17.40424   -7.11886
       H    -3.99830   16.08696   -9.68423
       O    -4.89987   16.00712   -9.40321
      H1    -4.91976   15.16250   -8.93395
       H    -3.74449   17.57636   -4.20390
       O    -4.13930   16.70234   -4.05682
      H1    -4.36243   16.40909   -4.93366
       H    -3.93120   18.19160  -11.74337
       O    -4.52441   18.41718  -12.45990
      H1    -5.06693   17.61784  -12.51459
       H    -2.10706   18.14908   -9.54612
       O    -2.44811   18.55960  -10.33172
      H1    -1.96876   19.38500  -10.32586
       H    -3.47377   16.81335   -6.72626
       O    -2.57789   16.75066   -7.01918
      H1    -2.17538   17.58649   -6.69545
       H    -5.15990   17.96351   -9.14956
       O    -4.75479   18.63153   -8.56578
      H1    -4.00349   18.93441   -9.09138
       H    -1.75502   15.06661   -7.25191
       O    -1.55163   14.10281   -7.34527
      H1    -0.60402   14.10775   -7.35194

