60
frame 3 | Written by MDAnalysis XYZWriter (release 2.4.3)
       H    -6.07826   -3.43411    5.06524
       O    -5.99884   -3.25595    4.11356
      H1    -5.55517   -4.07800    3.80021
       H    -2.78014   -6.15188    1.88031
       O    -2.56611   -5.56557    1.14543
      H1    -2.60328   -4.68842    1.53220
       H    -5.31663   -5.87150    1.77730
       O    -5.42837   -5.57413    2.68529
      H1    -5.72105   -6.36188    3.17331
       H    -4.53593   -1.97100    9.08375
       O    -3.75936   -1.98814    8.49826
      H1    -4.14613   -2.01194    7.63316
       H    -1.08958    0.70896    4.87182
       O    -1.30125    0.06815    4.20814
      H1    -1.82245   -0.58043    4.73990
       H    -2.81165   -0.28012    7.35767
       O    -3.18515    0.31483    6.69230
      H1    -3.45270   -0.24817    5.98706
       H    -0.85852   -3.87615    4.39905
       O    -1.54476   -4.27198    4.98766
      H1    -1.14885   -4.26650    5.85527
       H     0.20888   -3.95829    7.89687
       O    -0.53352   -4.47994    7.56452
      H1    -1.18200   -4.43330    8.28854
       H    -6.34549   -0.60324    2.22797
       O    -5.49861   -1.08100    2.43026
      H1    -5.65285   -1.47567    3.29716
       H    -2.31031   -5.79924    4.21085
       O    -2.78381   -6.43682    3.66695
      H1    -3.54168   -5.91886    3.37186
       H    -3.70438   -5.69421    5.87393
       O    -4.12298   -5.10331    6.48657
      H1    -4.77783   -5.65241    6.95112
       H    -5.97119   -0.77372    6.83056
       O    -6.30626   -1.66520    6.66948
      H1    -6.94997   -1.82524    7.36697
       H    -1.06591    2.45940    6.18549
       O    -1.99017    2.51136    5.97500
      H1    -2.29465    1.71924    6.42322
       H     0.26503   -1.90885    3.79848
       O     0.17406   -2.70224    3.26022
      H1     1.05247   -3.10397    3.25035
       H    -0.62221   -2.61572    1.49743
       O    -0.80285   -2.15443    0.67893
      H1    -0.88056   -2.88327    0.01264
       H     0.10458   -1.67808    6.54210
       O    -0.74366   -1.56460    6.95339
      H1    -1.06300   -2.46120    7.09455
       H    -2.79370   -4.27215   10.51080
       O    -2.40091   -4.48735    9.67959
      H1    -3.14705   -4.12279    9.15613
       H    -2.74683    0.42821    3.13740
       O    -3.49507    0.82943    2.66545
      H1    -4.13315    0.09172    2.63922
       H    -2.74211   -2.82436    3.37326
       O    -2.71605   -3.11123    2.46818
      H1    -2.35114   -2.32996    2.01730
       H    -4.02428   -2.95827    5.24734
       O    -3.38800   -2.27845    4.99180
      H1    -2.52665   -2.67486    5.24007

