60
frame 2 | Written by MDAnalysis XYZWriter (release 2.4.3)
       H    12.89182    4.68276    1.69467
       O    12.36206    4.20127    2.36441
      H1    13.05438    4.08361    3.06314
       H    13.86061   10.29966   -3.40971
       O    14.22820   10.81604   -2.66859
      H1    14.99274   11.25159   -3.03941
       H    15.92016   11.15125    0.38650
       O    15.34949   11.56691   -0.28681
      H1    15.07642   10.87379   -0.86986
       H    19.01558    5.24294    0.78385
       O    18.71080    5.73026    0.02342
      H1    18.85538    6.62036    0.34615
       H    14.14406    6.87647    3.59835
       O    13.56616    6.62534    4.31713
      H1    14.02592    6.98482    5.12692
       H    12.58052    6.97060   -0.01279
       O    13.47921    6.73544   -0.30966
      H1    13.47142    5.76241   -0.37043
       H    15.36467    8.77447   -4.28262
       O    16.30030    8.64158   -4.41595
      H1    16.34263    7.84385   -4.96181
       H    15.15249    4.28657   -2.63760
       O    15.33750    3.42163   -2.17822
      H1    15.53700    2.83845   -2.92823
       H    17.20719    9.41689    0.78416
       O    17.79507   10.14145    0.97339
      H1    17.40095   10.43960    1.79145
       H    17.24527    7.64733   -2.20646
       O    16.72093    7.01149   -1.70046
      H1    17.35990    6.32297   -1.46711
       H    14.92898    6.22164    0.91659
       O    15.41610    5.63220    1.52098
      H1    15.72164    4.90839    0.96571
       H    13.63743   11.78277    0.07509
       O    12.84994   11.96570    0.60876
      H1    12.04337   11.67886    0.10859
       H    16.97505    4.10089   -1.62270
       O    17.85376    4.22055   -2.00502
      H1    18.39660    4.59658   -1.26566
       H    12.94938   10.24794    1.43297
       O    12.76108    9.30627    1.44055
      H1    12.28920    9.13553    2.26102
       H    16.44743    6.76480    2.30623
       O    17.23524    7.13082    2.76639
      H1    16.94801    8.00003    3.00608
       H    13.72431    6.43718   -2.37130
       O    14.46632    5.97442   -2.78385
      H1    15.27313    6.43290   -2.51658
       H    15.21944   11.83624    2.20532
       O    16.15202   11.96051    2.43491
      H1    16.17140   12.52557    3.19856
       H    14.06083    3.87678   -1.02836
       O    13.30909    4.17441   -0.51557
      H1    12.61047    4.28437   -1.20397
       H    15.34871    7.83641   -0.03058
       O    15.41509    8.58147    0.58481
      H1    14.49616    8.82337    0.77738
       H    16.59001    9.36935    4.55797
       O    15.79139    9.40832    3.98801
      H1    15.78100   10.27276    3.55611

