60
frame 2 | Written by MDAnalysis XYZWriter (release 2.4.3)
       H    13.10875   17.54737   -3.40440
       O    13.77508   17.31071   -4.03324
      H1    13.39293   17.58797   -4.87400
       H    15.71692   17.43521   -1.76927
       O    15.45570   16.67016   -1.25352
      H1    15.02985   16.13085   -1.90946
       H    13.39828   18.00798    3.02022
       O    12.47401   18.21684    3.21617
      H1    12.35965   18.15206    4.18526
       H    14.96712   17.17443    2.75079
       O    15.34672   17.68441    3.48150
      H1    15.13485   17.16599    4.27000
       H    11.00179   12.73848   -2.62689
       O    10.16882   12.26712   -2.67202
      H1     9.57987   12.73335   -2.03921
       H    11.53144   14.82312   -5.43448
       O    12.12601   15.55461   -5.45580
      H1    11.73025   16.15073   -6.08980
       H    11.45028   16.47024   -1.86451
       O    12.29692   16.82137   -1.54659
      H1    12.45014   16.15820   -0.90372
       H    13.37612   12.09233   -2.20289
       O    12.75413   12.84563   -2.10447
      H1    13.16688   13.59444   -2.58915
       H    10.36031   17.29609    0.97472
       O    10.43505   18.24863    1.13065
      H1    11.09793   18.19940    1.84159
       H     8.83579   14.55699   -0.48288
       O     8.50718   13.89572   -1.10088
      H1     8.39364   14.41041   -1.91107
       H    13.63743   11.78277    0.07509
       O    12.84994   11.96570    0.60876
      H1    12.04337   11.67886    0.10859
       H    15.81891   19.36548   -4.01705
       O    15.88253   18.80520   -3.24641
      H1    15.30372   18.07717   -3.49680
       H     9.51762   15.13589    1.54351
       O     9.81203   15.46423    0.69888
      H1    10.77220   15.31939    0.77310
       H    15.24644   14.65431   -3.44094
       O    14.43790   14.94205   -3.00185
      H1    14.07615   15.65147   -3.54443
       H    10.64548   13.40841    3.10622
       O    11.46339   13.93632    3.27605
      H1    12.20272   13.31926    3.14917
       H    10.90231   16.14206   -4.03564
       O    10.13858   16.30197   -3.50527
      H1     9.44455   15.71670   -3.83081
       H     8.56083   18.99454   -4.85574
       O     9.42378   18.96548   -4.37021
      H1     9.51912   17.99296   -4.20002
       H    16.89616   15.36331   -0.76806
       O    17.77456   15.11945   -0.45554
      H1    17.69249   14.96362    0.51159
       H    13.69246   15.90153    0.98906
       O    14.47587   16.37816    1.26399
      H1    14.85450   16.62293    0.40538
       H    12.10442   14.38077    1.72038
       O    12.37224   14.62562    0.81452
      H1    12.48414   13.74696    0.42367

