60
frame 3 | Written by MDAnalysis XYZWriter (release 2.4.3)
       H    -9.73175   12.49233   -0.98598
       O   -10.62834   12.79583   -1.05894
      H1   -11.08070   12.16949   -0.46840
       H    -7.19787   12.80283   -1.12765
       O    -7.76677   12.00680   -1.22486
      H1    -7.20378   11.28103   -0.98790
       H    -6.97801   14.39522    0.90116
       O    -6.34680   14.66619    1.62484
      H1    -6.94970   14.98693    2.35105
       H    -9.19161   17.11991    0.33677
       O    -9.21697   16.93137    1.28323
      H1    -9.73702   16.11392    1.34057
       H    -6.71186   15.04462   -2.24773
       O    -6.40545   14.49498   -1.51357
      H1    -5.43931   14.51387   -1.55710
       H    -6.22198   17.62460    0.61152
       O    -5.94993   17.28337   -0.25818
      H1    -6.17345   16.34966   -0.13623
       H    -2.97020   14.04007   -3.09118
       O    -3.69175   13.74140   -2.49035
      H1    -3.93589   12.84843   -2.79511
       H    -6.21016   10.05156   -2.12446
       O    -5.82723    9.88724   -1.25008
      H1    -6.36539    9.16226   -0.93618
       H    -3.23385   15.74430    0.74409
       O    -3.65193   15.77201   -0.12122
      H1    -4.46393   16.32915   -0.04295
       H   -11.18650   15.11633    0.73375
       O   -10.93044   15.42042   -0.14219
      H1   -10.67315   14.61019   -0.61870
       H    -9.62464   17.85163   -1.86353
       O    -9.06381   18.28218   -1.19964
      H1    -8.22638   18.29061   -1.63919
       H    -5.69505   13.92068   -3.65924
       O    -6.16674   13.31670   -4.26094
      H1    -7.06507   13.69623   -4.27974
       H    -7.97595   16.35010   -3.95636
       O    -8.05148   15.50040   -3.48559
      H1    -8.97228   15.44065   -3.23097
       H    -5.63254   18.34753   -1.71165
       O    -5.40984   18.80016   -2.54044
      H1    -5.22387   18.06650   -3.12054
       H    -7.28280   12.21999    1.31812
       O    -6.56673   11.57175    1.33315
      H1    -5.83045   12.13131    1.61271
       H    -7.63457   10.87829   -3.34770
       O    -6.71049   10.83621   -3.59799
      H1    -6.49467   11.75664   -3.79739
       H    -3.09218   13.72399   -0.32656
       O    -2.65213   12.92417    0.06438
      H1    -1.82598   13.27682    0.41798
       H    -3.74449   17.57636   -4.20390
       O    -4.13930   16.70234   -4.05682
      H1    -4.36243   16.40909   -4.93366
       H    -9.14527   12.80344    2.69017
       O    -8.84461   13.16928    1.85275
      H1    -9.58877   12.97134    1.28840
       H    -4.87860   13.71550    2.11390
       O    -4.30326   12.93584    2.19462
      H1    -3.70081   13.04350    1.44309

