60
frame 2 | Written by MDAnalysis XYZWriter (release 2.4.3)
       H    -5.89036    9.95809   14.96267
       O    -5.53383   10.84602   14.86596
      H1    -5.10079   10.84261   13.99885
       H    -6.42778    7.09155   18.36773
       O    -7.27989    6.62929   18.22311
      H1    -7.02068    5.69970   18.30678
       H    -5.97961   10.92612   18.13416
       O    -6.78670   10.61537   18.58351
      H1    -7.49339   11.15109   18.21121
       H    -3.43217    8.92945   18.21747
       O    -2.67158    9.45219   17.99755
      H1    -3.00588   10.27692   17.60216
       H    -4.33949    4.41492   18.31351
       O    -3.58583    4.98192   18.53670
      H1    -3.60829    5.03807   19.51162
       H    -3.74510    6.27188   16.71170
       O    -4.44589    6.84064   16.37289
      H1    -4.95107    6.29236   15.73687
       H    -5.46129   14.53111   18.26284
       O    -5.40717   13.63840   18.63809
      H1    -6.34457   13.52635   18.85296
       H    -3.86713   14.20623   15.04725
       O    -2.95043   14.52086   15.14297
      H1    -2.95831   15.22537   15.76883
       H    -7.38745   13.41350   14.78278
       O    -7.66784   12.51516   14.97466
      H1    -6.90167   11.94111   14.88282
       H    -0.62311    7.42210   14.81785
       O    -0.07948    6.74876   15.24007
      H1     0.60333    7.21523   15.74353
       H     1.59375   10.27708   14.89620
       O     1.65505    9.35979   15.30807
      H1     2.39264    9.42117   15.91182
       H    -0.73979    9.96232   17.98819
       O    -0.18605   10.76024   17.99965
      H1     0.58550   10.56585   17.43053
       H    -1.28266   12.38334   17.44231
       O    -1.36140   13.36350   17.29042
      H1    -1.84291   13.47922   16.46457
       H    -0.89270   13.05641   12.64832
       O    -0.57903   12.50544   13.33953
      H1    -1.08195   11.67290   13.20756
       H    -3.07939    7.90628   15.20457
       O    -2.71782    7.78453   14.34751
      H1    -2.80777    6.80943   14.25388
       H    -2.52791    9.28329   13.63695
       O    -2.28904   10.15047   13.27408
      H1    -3.05717   10.39301   12.75016
       H    -7.01782    7.68309   15.82705
       O    -6.43626    8.36548   15.43150
      H1    -5.66430    8.30269   15.97297
       H    -4.79326   12.19571   17.51095
       O    -4.64734   11.22932   17.39604
      H1    -4.86811   11.10334   16.44489
       H     0.78095   15.97108   16.11442
       O     1.23554   15.12050   16.25959
      H1     0.53458   14.46578   16.44973
       H    -5.56680   11.67213   12.13378
       O    -4.63725   11.69704   12.38962
      H1    -4.42124   12.62577   12.28272

