60
frame 3 | Written by MDAnalysis XYZWriter (release 2.4.3)
       H    -8.63006  -11.62558  -16.45904
       O    -7.92680  -11.66358  -17.11169
      H1    -7.21315  -12.10515  -16.62769
       H    -9.67634  -15.05411  -17.41830
       O    -9.71315  -14.10350  -17.24829
      H1   -10.66481  -13.88073  -17.33021
       H   -14.57376  -13.36394  -14.65362
       O   -14.08588  -12.99921  -13.89858
      H1   -14.24662  -13.69833  -13.21667
       H   -10.07130   -8.57477  -16.69947
       O   -10.33288   -7.76222  -17.18884
      H1   -11.15157   -7.42534  -16.74956
       H   -11.54586  -11.10689  -13.31119
       O   -11.93245  -10.31572  -12.89421
      H1   -11.20495   -9.65738  -12.89806
       H    -8.95967  -17.12061  -18.73060
       O    -9.43288  -16.52410  -18.13951
      H1   -10.35244  -16.84938  -18.17659
       H   -10.85880  -10.87969  -18.97080
       O   -11.70312  -10.90509  -18.52818
      H1   -12.21570  -11.46175  -19.15774
       H   -14.61122   -6.76744  -18.44052
       O   -14.89961   -7.31815  -19.18192
      H1   -15.09397   -8.20287  -18.79196
       H   -11.83844  -16.28804  -19.25443
       O   -12.06518  -17.08750  -18.75099
      H1   -12.36742  -16.75060  -17.91616
       H    -7.34189   -9.80625  -17.28942
       O    -7.23446   -8.94487  -17.66344
      H1    -7.84269   -8.39513  -17.17843
       H   -13.15677  -10.00159  -17.65054
       O   -14.05283   -9.84942  -17.34299
      H1   -14.01163   -9.69550  -16.41359
       H   -12.98694  -14.60363  -17.11554
       O   -12.45321  -13.83190  -17.27029
      H1   -13.13757  -13.28689  -17.61415
       H    -8.75880  -13.68910  -15.08193
       O    -9.17353  -13.16820  -14.37212
      H1   -10.07226  -13.07091  -14.71235
       H   -15.18550  -15.54362  -15.31346
       O   -14.85238  -14.84716  -15.89221
      H1   -15.52491  -14.63416  -16.56049
       H    -6.91846  -13.40426  -18.21507
       O    -6.08557  -13.73603  -17.96417
      H1    -5.45957  -13.42304  -18.60432
       H   -14.94070  -10.73492  -14.46723
       O   -14.30826  -10.01566  -14.33648
      H1   -13.46396  -10.47575  -14.18945
       H   -15.85796  -13.60992  -18.76700
       O   -16.28036  -14.16353  -18.10177
      H1   -16.38155  -15.03509  -18.50238
       H   -12.62884  -12.68786  -14.77492
       O   -11.77660  -12.35651  -15.17941
      H1   -11.86787  -12.66240  -16.09389
       H   -17.57308  -10.87502  -16.28468
       O   -16.83931  -10.23743  -16.19082
      H1   -17.22500   -9.50273  -15.72643
       H    -9.23092  -10.30702  -15.36283
       O    -9.77156  -10.02602  -16.12157
      H1   -10.59947  -10.51372  -16.04300

