60
frame 2 | Written by MDAnalysis XYZWriter (release 2.4.3)
       H    13.33929  -15.77760   11.15474
       O    13.79747  -16.62363   10.98409
      H1    14.69904  -16.52901   11.32048
       H    10.75148   -9.87719   13.05364
       O    10.41941  -10.79102   12.99961
      H1     9.45926  -10.66144   12.89203
       H     9.23395  -14.77716   12.13633
       O     9.97132  -15.19303   11.63051
      H1    10.13331  -16.03848   12.12121
       H    10.83821  -13.98486    7.45481
       O    11.67015  -14.47946    7.62918
      H1    12.08777  -14.00504    8.38080
       H     7.37004  -15.80478   13.90233
       O     7.99044  -15.16013   13.54884
      H1     7.43456  -14.38601   13.31822
       H    11.20273  -11.10326   11.47579
       O    11.86254  -11.40770   10.81556
      H1    11.62222  -10.81467   10.08667
       H    10.91773  -16.89247   13.95622
       O    10.60229  -17.31004   13.16565
      H1    10.58775  -18.21982   13.41797
       H     9.97662  -18.81198    7.84794
       O    10.82921  -18.87531    8.31828
      H1    10.94956  -18.01194    8.68110
       H    15.00783  -16.69396   16.09012
       O    14.37594  -17.33835   15.76308
      H1    13.91053  -16.93357   14.99044
       H    10.87667  -15.55430    8.64902
       O    10.44556  -16.23438    9.17875
      H1    10.20985  -15.77529    9.98118
       H    13.20015  -13.38455   15.26729
       O    13.85625  -13.44945   14.57724
      H1    13.41982  -14.05381   13.95656
       H     9.94209  -17.46219   16.32026
       O     9.07184  -17.65751   16.72125
      H1     9.33652  -18.29348   17.39929
       H    14.62349  -17.38878    7.85657
       O    15.22084  -17.26821    8.60901
      H1    14.63424  -17.14715    9.38982
       H    16.43210  -14.28302   13.65108
       O    16.30507  -14.48080   14.60011
      H1    15.44288  -14.03536   14.76599
       H    15.98129  -17.50854   12.41738
       O    16.41295  -16.87205   11.83147
      H1    16.47430  -16.09887   12.36269
       H     8.93097  -14.42375   14.84992
       O     9.41248  -13.91995   15.50694
      H1     9.12157  -14.29301   16.34587
       H    10.64266  -15.04640   15.17674
       O    11.20749  -15.80792   15.40914
      H1    11.80754  -15.44233   16.10090
       H    12.67672  -12.79658    9.98093
       O    12.97333  -13.70897    9.82166
      H1    13.94131  -13.61930    9.94135
       H    13.93449  -11.47352   13.55201
       O    14.10953  -10.76354   12.91955
      H1    13.49646  -10.99035   12.22164
       H    11.99196  -15.47076   12.33990
       O    12.63818  -14.77861   12.46816
      H1    12.47056  -14.19723   11.70812

