60
frame 3 | Written by MDAnalysis XYZWriter (release 2.4.3)
       H     6.39761   -6.44169    4.16411
       O     6.09644   -7.17255    3.65071
      H1     6.11334   -6.74266    2.78581
       H     1.82546  -10.17719    2.47376
       O     2.21453  -11.06840    2.32735
      H1     1.75912  -11.55899    3.01844
       H     1.52926  -13.98392    4.53976
       O     1.82120  -13.29817    3.89868
      H1     2.79338  -13.33411    3.95969
       H     1.16087  -11.27683    1.06550
       O     0.48378  -11.29678    0.36969
      H1     0.89928  -11.77260   -0.35768
       H     4.01836   -6.72344    4.05467
       O     3.23207   -6.38842    3.56608
      H1     3.13741   -6.96645    2.80419
       H     8.78574  -11.48644    4.18559
       O     8.72871  -12.35610    3.77520
      H1     8.36669  -12.12330    2.91697
       H     5.06661  -13.82203    3.76427
       O     4.48562  -13.25321    4.31429
      H1     4.80214  -12.36391    4.06470
       H     6.52358  -13.92194    2.28050
       O     6.03073  -14.65591    2.56218
      H1     5.43272  -14.84566    1.82005
       H     1.29987   -8.62149    4.34007
       O     1.63491   -7.95007    4.91743
      H1     1.98777   -7.31690    4.32114
       H     4.11061  -11.65833    0.15633
       O     3.82004  -12.44035   -0.32925
      H1     3.23469  -12.03397   -0.96229
       H     2.88573   -9.60074    5.86249
       O     3.80157   -9.62983    6.18304
      H1     3.96479  -10.52211    6.52313
       H     8.57462   -9.25217    3.91665
       O     7.97719   -9.42039    3.19092
      H1     7.17501   -8.97945    3.47503
       H     5.49537   -8.54865    6.99749
       O     6.14097   -8.10198    7.55377
      H1     7.00662   -8.46439    7.28810
       H     4.08880  -10.63577    3.13087
       O     4.87079  -10.64847    3.70044
      H1     4.57697  -10.15371    4.49679
       H     4.29863   -7.36767    1.31146
       O     3.54701   -7.98079    1.38937
      H1     3.07972   -7.97209    0.54168
       H     3.71547  -13.43063    5.94120
       O     3.39006  -13.06919    6.76073
      H1     4.18125  -12.97054    7.28921
       H     4.64847   -9.88633    1.48156
       O     5.09824  -10.32037    0.74904
      H1     5.54466   -9.54332    0.32627
       H     0.52433  -10.47953    5.49369
       O     1.36961  -10.73004    5.07090
      H1     1.65823  -11.49480    5.53558
       H     6.93069  -12.34419    0.22069
       O     7.25346  -12.17171    1.11179
      H1     6.68659  -11.42050    1.31929
       H     7.74317  -13.14336    5.27961
       O     7.45995  -13.63093    6.07489
      H1     6.68563  -14.07570    5.76188

