60
frame 2 | Written by MDAnalysis XYZWriter (release 2.4.3)
       H   -18.09641   -5.87197  -13.65254
       O   -17.30507   -6.31523  -13.30955
      H1   -17.60812   -7.22958  -13.41987
       H   -12.15815   -9.59456  -14.74451
       O   -12.47826   -8.68598  -14.88809
      H1   -12.40304   -8.46822  -15.80878
       H   -11.61619   -8.14219  -12.82472
       O   -11.60915   -8.79477  -12.10796
      H1   -10.66442   -8.82932  -11.80977
       H   -16.40891   -5.70582  -19.23941
       O   -16.94175   -5.07570  -18.69662
      H1   -17.81156   -5.47209  -18.59999
       H    -7.86263   -5.81267  -16.83911
       O    -8.21191   -6.69453  -16.71063
      H1    -9.15136   -6.50272  -16.79032
       H   -10.50320   -9.43605  -18.46046
       O   -11.25279   -9.47527  -17.86962
      H1   -11.13663  -10.24734  -17.29097
       H   -14.20782   -1.97597  -16.73628
       O   -14.08771   -1.15092  -17.20790
      H1   -13.54805   -0.60840  -16.58143
       H   -13.85271   -7.27014  -18.22970
       O   -13.59602   -7.46859  -19.11557
      H1   -13.66608   -8.46521  -19.09724
       H   -10.93942   -7.57994  -17.36636
       O   -11.25264   -6.71149  -17.15325
      H1   -11.68344   -6.39521  -17.96195
       H   -15.66831   -3.88654  -17.53508
       O   -15.18422   -3.87440  -16.70777
      H1   -14.54458   -4.60653  -16.79748
       H   -12.81230   -9.96668  -18.54445
       O   -13.79739  -10.05655  -18.50982
      H1   -14.00167  -10.20905  -17.57624
       H   -13.24675   -2.32584  -13.87130
       O   -13.76976   -2.49626  -13.06851
      H1   -14.37310   -3.22823  -13.27453
       H   -15.36658   -6.25693  -13.31247
       O   -14.56193   -6.76069  -13.49342
      H1   -14.84811   -7.64552  -13.74939
       H   -10.04727   -6.06142  -14.48103
       O   -10.23227   -6.92410  -14.11079
      H1   -10.98149   -7.24080  -14.65968
       H   -16.27843   -4.98869  -13.82570
       O   -15.90442   -4.08180  -13.94550
      H1   -15.67983   -3.96286  -14.87559
       H   -13.37610   -6.44754  -16.18208
       O   -14.17766   -6.69253  -16.65196
      H1   -14.70596   -7.03678  -15.92475
       H   -12.11782   -5.41513  -11.94436
       O   -12.48316   -6.21546  -11.54813
      H1   -13.19502   -6.39118  -12.16489
       H   -16.06296   -9.72919  -14.95222
       O   -16.18336   -8.87981  -14.47144
      H1   -16.08389   -9.15385  -13.54874
       H   -10.65971  -11.24114  -15.40161
       O   -11.54283  -11.03267  -15.74428
      H1   -11.93243  -11.89042  -15.83405
       H   -15.88974  -11.84026  -16.66522
       O   -15.74718  -10.86419  -16.67161
      H1   -16.17958  -10.56256  -17.48101

