60
frame 2 | Written by MDAnalysis XYZWriter (release 2.4.3)
       H    12.89182    4.68276    1.69467
       O    12.36206    4.20127    2.36441
      H1    13.05438    4.08361    3.06314
       H    10.88715    9.47287    4.34870
       O    10.75121   10.36616    4.72219
      H1    10.05893   10.23741    5.38368
       H     7.40670    7.92874    3.64678
       O     8.06191    7.67134    2.98842
      H1     7.56813    7.18792    2.32864
       H    15.92016   11.15125    0.38650
       O    15.34949   11.56691   -0.28681
      H1    15.07642   10.87379   -0.86986
       H     8.85274   11.72081    2.67507
       O     9.80503   11.88395    2.72449
      H1    10.13350   11.27354    3.36865
       H    14.14406    6.87647    3.59835
       O    13.56616    6.62534    4.31713
      H1    14.02592    6.98482    5.12692
       H    12.58052    6.97060   -0.01279
       O    13.47921    6.73544   -0.30966
      H1    13.47142    5.76241   -0.37043
       H    10.24115    7.44092    3.62941
       O    11.10892    7.80380    3.38663
      H1    11.70992    7.43050    4.04862
       H    14.13738   12.22890    4.60082
       O    13.63644   11.91491    3.82027
      H1    13.21455   11.08317    4.12830
       H    14.92898    6.22164    0.91659
       O    15.41610    5.63220    1.52098
      H1    15.72164    4.90839    0.96571
       H    13.63743   11.78277    0.07509
       O    12.84994   11.96570    0.60876
      H1    12.04337   11.67886    0.10859
       H    10.64548   13.40841    3.10622
       O    11.46339   13.93632    3.27605
      H1    12.20272   13.31926    3.14917
       H    12.94938   10.24794    1.43297
       O    12.76108    9.30627    1.44055
      H1    12.28920    9.13553    2.26102
       H    15.13219    8.25559    6.74737
       O    14.42099    8.73269    6.23928
      H1    14.90795    9.00428    5.43606
       H    11.16997    5.40679    1.67426
       O    10.93540    6.15354    1.07547
      H1    10.99895    6.93639    1.65284
       H     8.83299    8.45167    1.10704
       O     8.87765    8.66931    0.18905
      H1     9.31861    9.53048    0.15207
       H    15.21944   11.83624    2.20532
       O    16.15202   11.96051    2.43491
      H1    16.17140   12.52557    3.19856
       H    10.14653   11.79424    0.50982
       O    10.40980   11.13762   -0.14404
      H1    10.22075   11.57964   -0.98679
       H    15.34871    7.83641   -0.03058
       O    15.41509    8.58147    0.58481
      H1    14.49616    8.82337    0.77738
       H    16.59001    9.36935    4.55797
       O    15.79139    9.40832    3.98801
      H1    15.78100   10.27276    3.55611

