60
frame 3 | Written by MDAnalysis XYZWriter (release 2.4.3)
       H     1.55781   -5.75569   12.28707
       O     0.92864   -5.04816   12.01239
      H1     1.51520   -4.60143   11.35593
       H    -1.65287   -0.72425    9.97421
       O    -1.60900    0.15043    9.54081
      H1    -1.23421    0.75015   10.18699
       H    -4.30522   -6.38255   10.67284
       O    -4.62309   -5.73523   11.29755
      H1    -5.30584   -6.24695   11.76531
       H    -0.30778   -6.34020    6.90279
       O    -0.35800   -7.29239    6.76627
      H1     0.33305   -7.43345    6.09760
       H    -4.53593   -1.97100    9.08375
       O    -3.75936   -1.98814    8.49826
      H1    -4.14613   -2.01194    7.63316
       H    -0.85852   -3.87615    4.39905
       O    -1.54476   -4.27198    4.98766
      H1    -1.14885   -4.26650    5.85527
       H     0.20888   -3.95829    7.89687
       O    -0.53352   -4.47994    7.56452
      H1    -1.18200   -4.43330    8.28854
       H    -2.19737   -7.90121    6.86254
       O    -2.95508   -8.37234    7.23824
      H1    -3.14879   -7.94203    8.07652
       H     0.27916   -6.65998    9.23965
       O     0.73346   -6.94905   10.00600
      H1     0.50307   -6.32556   10.71125
       H     1.59409   -1.79242    8.50023
       O     1.58684   -2.75110    8.46496
      H1     2.17502   -2.92683    7.72413
       H    -2.02345   -8.36874   11.85382
       O    -1.99607   -8.88718   11.04641
      H1    -1.18396   -9.39698   11.17772
       H     0.03871   -1.29585   11.77907
       O    -0.59563   -1.74835   11.21316
      H1    -0.09469   -2.02723   10.43036
       H    -3.70438   -5.69421    5.87393
       O    -4.12298   -5.10331    6.48657
      H1    -4.77783   -5.65241    6.95112
       H    -5.94183   -2.88943   10.62749
       O    -5.45740   -2.06875   10.57878
      H1    -4.83597   -2.11612   11.31515
       H    -0.79921   -3.83501   12.91705
       O    -1.58983   -3.85099   13.49252
      H1    -1.72765   -4.80046   13.66304
       H    -1.87511   -6.89224   13.55969
       O    -2.63583   -7.16564   13.02470
      H1    -3.13793   -6.34131   13.00841
       H    -4.11505   -2.43683   13.60067
       O    -3.64139   -2.08142   12.83190
      H1    -2.85638   -2.65305   12.90715
       H     0.10458   -1.67808    6.54210
       O    -0.74366   -1.56460    6.95339
      H1    -1.06300   -2.46120    7.09455
       H    -2.68278   -7.74210   10.11477
       O    -3.21551   -7.12603    9.58754
      H1    -2.70774   -6.31478    9.69813
       H    -2.79370   -4.27215   10.51080
       O    -2.40091   -4.48735    9.67959
      H1    -3.14705   -4.12279    9.15613

