60
frame 3 | Written by MDAnalysis XYZWriter (release 2.4.3)
       H    13.92778  -10.26256   -6.67262
       O    13.53985  -11.14147   -6.75446
      H1    13.83423  -11.44854   -7.64418
       H    13.21311  -13.21085   -1.17928
       O    12.68716  -13.58187   -1.88270
      H1    12.90763  -13.10100   -2.66049
       H    11.46045  -12.50569   -8.39055
       O    11.15831  -11.90221   -7.70560
      H1    11.95887  -11.40031   -7.44887
       H     9.31857  -12.56186   -7.65883
       O     8.42901  -12.88005   -7.82040
      H1     7.88327  -12.09823   -7.73394
       H     9.77408  -11.30786   -5.82725
       O     9.54543  -11.10879   -4.90133
      H1    10.15757  -11.63546   -4.38683
       H     9.74199  -11.35133   -0.43170
       O     9.42272  -10.69008    0.21962
      H1     8.54299  -11.01222    0.45905
       H    11.64019   -9.77050   -3.45285
       O    11.16192   -9.18111   -4.09981
      H1    10.41282   -9.73233   -4.35006
       H    12.80161  -11.73952   -4.99746
       O    12.42356  -12.24506   -4.26639
      H1    12.17081  -13.11820   -4.61564
       H     9.56538   -8.68226   -2.24430
       O     8.84699   -9.16211   -1.78978
      H1     9.30856   -9.74796   -1.13473
       H     8.78599   -8.57806   -7.39170
       O     8.46126   -8.62490   -6.49846
      H1     7.62212   -9.12597   -6.55957
       H    13.80800   -8.68743   -5.34650
       O    13.09798   -8.51741   -5.98884
      H1    12.26699   -8.69641   -5.52756
       H     6.24873   -9.32888   -4.44767
       O     5.89662   -8.89161   -5.23409
      H1     6.31830   -8.02829   -5.14442
       H    11.34266  -12.23599   -2.02969
       O    10.46811  -11.82684   -2.02906
      H1     9.86271  -12.56298   -2.16073
       H    12.03834   -9.18565   -1.02599
       O    12.72187   -9.03550   -1.67356
      H1    13.34937   -9.78261   -1.69284
       H     7.22023   -5.59459   -5.14283
       O     7.24655   -6.26378   -5.82854
      H1     8.07039   -6.76209   -5.63281
       H     9.12641   -6.42089   -1.65755
       O     8.40759   -6.24887   -1.03435
      H1     8.40567   -5.27174   -0.98968
       H     7.59615  -10.05381   -2.83001
       O     7.14903  -10.64311   -3.45188
      H1     7.80759  -10.84964   -4.15345
       H    12.92255   -5.59980   -4.31743
       O    12.01612   -5.28458   -4.48177
      H1    11.91337   -5.42000   -5.45125
       H    10.68699   -7.62836   -3.36701
       O    10.17261   -6.94198   -2.92238
      H1    10.07875   -6.29600   -3.63896
       H    13.96986   -5.97278   -7.05365
       O    13.03801   -6.04605   -7.24008
      H1    12.85711   -6.97847   -7.07353

