60
frame 3 | Written by MDAnalysis XYZWriter (release 2.4.3)
       H   -10.51377  -19.26470   17.55862
       O   -10.72464  -18.83945   16.71580
      H1   -11.67888  -18.71345   16.69442
       H   -14.18379  -12.32035   18.33826
       O   -14.14272  -12.40007   19.30743
      H1   -14.15071  -11.52361   19.62619
       H   -11.05460  -13.32988   16.48606
       O   -10.60991  -12.49282   16.22251
      H1   -10.02945  -12.80001   15.50460
       H   -13.00330  -14.77511   14.12274
       O   -13.41437  -14.02736   14.59529
      H1   -13.45038  -13.35454   13.91376
       H   -16.92901  -14.38109   15.52534
       O   -16.59650  -14.28088   16.42391
      H1   -17.13785  -14.93222   16.88340
       H   -13.14343  -15.04154   17.05188
       O   -14.02804  -15.34477   17.31627
      H1   -14.61240  -14.89565   16.69817
       H   -16.16784  -16.94113   12.80494
       O   -15.82074  -16.28037   13.40605
      H1   -14.88993  -16.19416   13.20040
       H   -10.98264  -15.51193   16.30800
       O   -11.05204  -15.04937   17.14417
      H1   -10.18324  -14.66256   17.29503
       H   -11.88624  -11.00201   15.38151
       O   -11.94139  -10.13966   14.94467
      H1   -12.82579   -9.84338   15.21116
       H   -15.91266  -19.14698   14.89635
       O   -16.15551  -18.30192   15.28941
      H1   -15.90718  -17.61549   14.63463
       H   -18.44708  -16.76359   18.03887
       O   -18.28428  -15.81380   18.19592
      H1   -19.15742  -15.40230   18.10271
       H   -15.74844  -14.59853   12.54409
       O   -15.27874  -13.73683   12.52511
      H1   -15.00019  -13.55339   13.44511
       H   -17.64192  -12.85547   17.18131
       O   -18.44269  -12.50009   16.75812
      H1   -19.04704  -12.42632   17.51207
       H   -18.57134  -13.25856   15.13659
       O   -18.30010  -13.52665   14.24798
      H1   -18.30842  -12.69789   13.74960
       H   -10.34500  -14.07126   13.54055
       O   -10.95276  -14.79391   13.46774
      H1   -10.49150  -15.51350   13.95586
       H   -15.67949  -10.53046   18.24497
       O   -16.44860  -10.17959   18.73398
      H1   -16.32698  -10.51999   19.62978
       H   -14.66576   -9.94560   16.26521
       O   -14.09393  -10.42765   16.85698
      H1   -13.51277   -9.69086   17.10492
       H   -17.70813   -9.59547   15.53845
       O   -17.79116  -10.31763   14.86894
      H1   -17.85376  -11.12287   15.42260
       H   -15.86126  -17.71921   19.03275
       O   -15.61712  -16.78609   19.27438
      H1   -15.26974  -16.47036   18.43808
       H   -14.26961  -17.86495   15.57214
       O   -13.44980  -17.55073   15.89794
      H1   -13.68769  -16.99884   16.68921

