60
frame 3 | Written by MDAnalysis XYZWriter (release 2.4.3)
       H    13.92778  -10.26256   -6.67262
       O    13.53985  -11.14147   -6.75446
      H1    13.83423  -11.44854   -7.64418
       H    11.46045  -12.50569   -8.39055
       O    11.15831  -11.90221   -7.70560
      H1    11.95887  -11.40031   -7.44887
       H    13.67470  -15.08128  -11.48327
       O    13.46726  -14.16368  -11.68441
      H1    14.29418  -13.72407  -11.54496
       H    11.02727   -8.37651  -10.31881
       O    11.81518   -8.79538  -10.68475
      H1    11.59784   -8.70553  -11.61398
       H    15.64593  -12.59535   -7.75718
       O    16.18692  -11.98713   -7.23467
      H1    17.13984  -12.16754   -7.38635
       H     9.31857  -12.56186   -7.65883
       O     8.42901  -12.88005   -7.82040
      H1     7.88327  -12.09823   -7.73394
       H    16.06952  -10.15259   -6.45363
       O    15.89916   -9.27467   -6.11731
      H1    16.68661   -8.87098   -6.48413
       H    14.03624  -12.47686   -9.83805
       O    13.38667  -11.83792   -9.55824
      H1    12.67530  -12.01411  -10.17490
       H    10.74138  -14.42202   -6.54084
       O    11.34884  -14.21906   -5.79252
      H1    12.21765  -14.39108   -6.14488
       H     9.77238  -12.43429  -12.72355
       O     9.41133  -13.00293  -12.02500
      H1     9.61863  -12.52293  -11.23417
       H    15.27997  -11.14210   -9.51243
       O    15.86202  -10.53616   -9.97833
      H1    16.72944  -10.58038   -9.52814
       H    14.94123  -10.21598  -13.67934
       O    14.68571  -11.15112  -13.76498
      H1    15.39135  -11.52831  -14.30954
       H    15.92442  -12.10963  -11.01128
       O    15.85179  -12.64897  -11.81163
      H1    15.52226  -12.01214  -12.47346
       H    12.14630  -14.45380  -10.07138
       O    11.79589  -14.12990   -9.22863
      H1    11.19840  -14.84669   -9.00541
       H    13.69911  -14.12301  -13.41588
       O    13.69948  -14.33191  -14.34562
      H1    14.39002  -14.99169  -14.38681
       H    14.34852  -14.19734   -8.61010
       O    15.13395  -13.76129   -8.97820
      H1    15.76753  -14.47099   -9.02287
       H    10.94903  -10.66666  -10.96925
       O    10.45430  -11.23744  -10.35973
      H1    10.84258  -11.06106   -9.49093
       H    13.05579  -11.23719  -12.77677
       O    12.16007  -10.93239  -12.57573
      H1    11.71683  -10.90031  -13.44303
       H    14.56658   -8.66606  -12.40325
       O    14.54767   -8.47318  -13.35641
      H1    15.46086   -8.14337  -13.51929
       H    13.69570   -8.59229  -10.56991
       O    14.58357   -8.30933  -10.56216
      H1    14.98577   -9.00783  -10.01689

