60
frame 3 | Written by MDAnalysis XYZWriter (release 2.4.3)
       H    15.27053   12.68470   12.49794
       O    15.06124   11.75187   12.39747
      H1    15.70321   11.48476   11.72264
       H    16.32508   17.06622   14.88570
       O    15.92650   16.40919   15.42338
      H1    14.97175   16.53829   15.35277
       H    14.01776   11.78844   16.73206
       O    13.83770   12.64847   16.32049
      H1    13.00270   12.48906   15.87055
       H     9.83726   17.46948   16.14692
       O     9.21891   17.19245   15.44785
      H1     9.10833   16.26538   15.55901
       H    16.75239   16.98152   17.21939
       O    17.42879   17.32609   17.79242
      H1    17.70592   16.57113   18.32671
       H    14.23280   15.44068   10.84334
       O    14.22933   14.67766   10.25832
      H1    13.38593   14.25286   10.36554
       H    17.43709   13.76002   17.41686
       O    17.93295   12.97563   17.16392
      H1    17.43195   12.57176   16.46793
       H    14.08703   17.11003   12.11361
       O    14.58678   17.17202   11.30947
      H1    14.37729   18.03434   10.94493
       H    10.60158   16.87059   14.08726
       O    11.47707   17.18665   13.79938
      H1    11.27863   18.03948   13.41786
       H    12.69408   16.24563   16.66926
       O    13.25705   16.54251   15.93091
      H1    12.54892   16.88272   15.31575
       H    13.62963   14.86427   14.34564
       O    14.33059   14.63627   13.72542
      H1    15.14419   15.06380   14.04017
       H    11.15081   15.46541   18.59223
       O    10.96722   15.93396   17.77093
      H1    10.99234   16.84814   18.03213
       H    16.13241   19.35103   14.30398
       O    16.41961   18.53870   13.83524
      H1    17.34216   18.74773   13.67006
       H    16.01838   15.23840   16.70483
       O    15.80232   14.54397   17.32125
      H1    14.98786   14.22113   16.93212
       H    17.50294   15.92876   12.09043
       O    17.53983   16.70189   11.52725
      H1    16.62703   17.03316   11.55807
       H    18.82500   13.94030   15.87550
       O    19.09176   14.69222   15.28976
      H1    18.61861   14.48997   14.47330
       H    15.73834   11.91076   14.07347
       O    16.12849   12.29763   14.84973
      H1    15.35463   12.63407   15.38202
       H    10.84597   19.33930   17.24679
       O    10.36713   18.56290   17.57132
      H1     9.45419   18.84789   17.64747
       H    13.03798   13.73461   11.95900
       O    12.44145   13.05725   11.61817
      H1    12.75800   12.29317   12.05302
       H    18.10730   13.75371   12.44181
       O    17.61473   14.20217   13.17031
      H1    17.33943   13.42304   13.67575

