60
frame 3 | Written by MDAnalysis XYZWriter (release 2.4.3)
       H    14.39416   -7.07391   -3.24293
       O    14.04947   -6.18057   -3.03576
      H1    13.43631   -6.43192   -2.30718
       H     7.53817   -8.37635   -0.74467
       O     6.71181   -8.38468   -0.24850
      H1     6.32656   -7.54255   -0.42759
       H    11.91654   -6.81429   -0.45623
       O    12.23420   -6.06185   -1.00923
      H1    11.47852   -5.85766   -1.55215
       H    12.04572   -4.59408   -0.03909
       O    12.26305   -3.91715    0.60279
      H1    11.64379   -3.21739    0.32720
       H    11.64019   -9.77050   -3.45285
       O    11.16192   -9.18111   -4.09981
      H1    10.41282   -9.73233   -4.35006
       H     4.75022   -5.88271   -2.70643
       O     5.41041   -6.19280   -2.11860
      H1     6.24360   -6.04436   -2.58648
       H     9.56538   -8.68226   -2.24430
       O     8.84699   -9.16211   -1.78978
      H1     9.30856   -9.74796   -1.13473
       H     8.78599   -8.57806   -7.39170
       O     8.46126   -8.62490   -6.49846
      H1     7.62212   -9.12597   -6.55957
       H     7.22494   -3.50622   -4.28713
       O     7.23911   -4.33469   -3.87882
      H1     8.09714   -4.34848   -3.42277
       H     8.59831   -4.06326   -7.01879
       O     7.90708   -3.54213   -7.45508
      H1     7.12095   -4.07436   -7.34694
       H    13.80800   -8.68743   -5.34650
       O    13.09798   -8.51741   -5.98884
      H1    12.26699   -8.69641   -5.52756
       H     6.24873   -9.32888   -4.44767
       O     5.89662   -8.89161   -5.23409
      H1     6.31830   -8.02829   -5.14442
       H    12.03834   -9.18565   -1.02599
       O    12.72187   -9.03550   -1.67356
      H1    13.34937   -9.78261   -1.69284
       H     7.22023   -5.59459   -5.14283
       O     7.24655   -6.26378   -5.82854
      H1     8.07039   -6.76209   -5.63281
       H     9.12641   -6.42089   -1.65755
       O     8.40759   -6.24887   -1.03435
      H1     8.40567   -5.27174   -0.98968
       H    13.15983   -3.93935   -5.12321
       O    13.84171   -3.34239   -5.45323
      H1    13.53766   -3.19650   -6.32873
       H     9.91134   -3.08235   -1.58461
       O     9.63963   -3.78050   -2.19583
      H1    10.34411   -3.67851   -2.84657
       H    12.92255   -5.59980   -4.31743
       O    12.01612   -5.28458   -4.48177
      H1    11.91337   -5.42000   -5.45125
       H    10.44624   -3.92133   -7.89037
       O    10.65393   -4.51702   -7.16013
      H1    11.28450   -5.15773   -7.53674
       H    10.68699   -7.62836   -3.36701
       O    10.17261   -6.94198   -2.92238
      H1    10.07875   -6.29600   -3.63896

