60
frame 3 | Written by MDAnalysis XYZWriter (release 2.4.3)
       H    15.27053   12.68470   12.49794
       O    15.06124   11.75187   12.39747
      H1    15.70321   11.48476   11.72264
       H    16.32508   17.06622   14.88570
       O    15.92650   16.40919   15.42338
      H1    14.97175   16.53829   15.35277
       H    14.01776   11.78844   16.73206
       O    13.83770   12.64847   16.32049
      H1    13.00270   12.48906   15.87055
       H    18.12868    9.61718   15.35811
       O    17.45444   10.12008   15.84100
      H1    17.27708   10.83075   15.25656
       H    18.34974    8.42780   13.44041
       O    18.90393    8.30742   14.21624
      H1    18.54653    7.50886   14.64477
       H    16.75239   16.98152   17.21939
       O    17.42879   17.32609   17.79242
      H1    17.70592   16.57113   18.32671
       H    17.59406    9.25459   17.36179
       O    17.60833    8.57730   18.03466
      H1    18.48963    8.67274   18.42190
       H    17.43709   13.76002   17.41686
       O    17.93295   12.97563   17.16392
      H1    17.43195   12.57176   16.46793
       H    12.69408   16.24563   16.66926
       O    13.25705   16.54251   15.93091
      H1    12.54892   16.88272   15.31575
       H    13.62963   14.86427   14.34564
       O    14.33059   14.63627   13.72542
      H1    15.14419   15.06380   14.04017
       H    12.82394    9.48753   18.96112
       O    11.92649    9.36605   19.21784
      H1    11.65859    8.49443   18.91227
       H    15.16621    8.48298   14.28109
       O    14.66457    9.23782   14.66415
      H1    14.98773    9.99125   14.11207
       H    18.14849    7.32159   16.95751
       O    18.34474    6.53842   16.43703
      H1    19.30061    6.46696   16.36591
       H    16.46357    5.92264   14.33277
       O    16.29217    6.67100   14.88377
      H1    17.04129    6.66734   15.49017
       H    16.01838   15.23840   16.70483
       O    15.80232   14.54397   17.32125
      H1    14.98786   14.22113   16.93212
       H    14.73544    9.26247   17.79603
       O    14.77435   10.14860   17.39935
      H1    15.29805   10.01600   16.58980
       H    17.50294   15.92876   12.09043
       O    17.53983   16.70189   11.52725
      H1    16.62703   17.03316   11.55807
       H    18.82500   13.94030   15.87550
       O    19.09176   14.69222   15.28976
      H1    18.61861   14.48997   14.47330
       H    15.73834   11.91076   14.07347
       O    16.12849   12.29763   14.84973
      H1    15.35463   12.63407   15.38202
       H    18.10730   13.75371   12.44181
       O    17.61473   14.20217   13.17031
      H1    17.33943   13.42304   13.67575

