60
frame 2 | Written by MDAnalysis XYZWriter (release 2.4.3)
       H   -15.25662   17.92362   13.38255
       O   -14.68044   17.26241   13.01503
      H1   -14.56520   16.66727   13.77069
       H   -10.05321   18.74776   16.19307
       O    -9.84268   18.42843   15.27641
      H1   -10.70788   18.57072   14.82040
       H   -18.42499    9.65239   13.42927
       O   -17.90745    9.91095   14.17131
      H1   -17.51367   10.73661   13.83678
       H   -18.17655   13.98241   16.82790
       O   -18.20464   13.21962   16.23978
      H1   -18.51257   12.49315   16.73721
       H   -16.09720   12.35256   14.44856
       O   -16.53720   12.31366   13.60120
      H1   -15.86377   12.65185   13.03083
       H   -15.94776   13.25973   16.35525
       O   -15.22767   12.70793   15.99106
      H1   -15.45679   11.85333   16.37219
       H   -17.59728   15.71155   12.59094
       O   -17.04723   15.97706   11.85701
      H1   -16.23460   16.18869   12.33062
       H   -18.32135   17.64280   10.99214
       O   -18.36675   18.27875   10.30409
      H1   -18.47045   19.13092   10.72602
       H   -13.72157   12.82194   17.17570
       O   -12.95317   13.21584   17.58553
      H1   -13.27631   13.72171   18.32275
       H   -13.85808   12.71248   12.88225
       O   -14.37619   13.49696   12.71597
      H1   -13.98497   13.82632   11.91070
       H   -14.58761   15.33804   15.74996
       O   -14.08401   15.69641   15.02787
      H1   -13.91164   14.94606   14.45035
       H   -11.98349   17.28508   18.54067
       O   -11.37314   16.56153   18.78505
      H1   -10.96344   16.30703   17.95174
       H   -15.74424   13.44402   10.34680
       O   -15.87662   14.25098    9.84703
      H1   -16.18025   14.85521   10.52870
       H   -12.91570   17.47104   13.35390
       O   -12.04624   17.90327   13.35445
      H1   -11.74137   17.78308   12.48289
       H   -19.67488   13.10286   12.55935
       O   -19.21673   12.35985   13.01643
      H1   -18.32144   12.66578   13.11211
       H   -16.54947   18.02344   10.14266
       O   -15.67938   18.25122   10.44878
      H1   -15.42454   17.53463   11.03916
       H   -12.06656   13.93695   16.46220
       O   -11.71815   14.65711   15.93934
      H1   -12.45894   15.09451   15.52047
       H   -17.83460   17.08600   15.33475
       O   -18.02272   17.72660   16.02718
      H1   -18.70438   17.31342   16.53282
       H   -15.94197    9.27721   17.10674
       O   -15.82055   10.16666   17.49915
      H1   -15.01132   10.08814   17.99744
       H   -16.92721   16.18520   17.02639
       O   -16.44385   15.40593   16.73385
      H1   -16.40902   14.92173   17.58001

