60
frame 3 | Written by MDAnalysis XYZWriter (release 2.4.3)
       H     4.93781   14.49545  -11.93767
       O     4.29420   14.28642  -11.27878
      H1     3.77878   13.59387  -11.72790
       H     9.53622   17.25586  -18.64245
       O     8.80557   16.66228  -18.29984
      H1     8.95938   15.77029  -18.60521
       H     3.22361   13.09898  -18.33528
       O     3.66427   12.89812  -17.50206
      H1     4.42819   13.48659  -17.47684
       H     1.31954   19.14336  -15.74628
       O     1.16126   18.96311  -14.80623
      H1     1.89116   18.40675  -14.57950
       H     4.35986   17.58414  -11.37288
       O     5.14006   17.80836  -11.86963
      H1     5.70233   17.10654  -11.62437
       H     9.71092   16.45392  -14.91113
       O    10.17657   17.02995  -15.52054
      H1     9.88193   16.74491  -16.39465
       H     7.24872   14.38158  -17.60662
       O     8.11251   13.97523  -17.79095
      H1     7.94688   13.38217  -18.50009
       H     2.36057   16.35742  -11.35996
       O     2.43255   16.94122  -10.60727
      H1     1.88765   17.68383  -10.90674
       H     6.94877   15.32677  -11.52932
       O     7.20036   16.11757  -11.01458
      H1     7.16881   15.83039  -10.06753
       H     8.34822   15.48791  -13.81892
       O     9.23887   15.17360  -13.80981
      H1     9.34007   14.82227  -12.92144
       H    -0.00330   19.37646  -11.80641
       O     0.43240   18.57547  -12.13781
      H1     0.45961   18.78090  -13.08421
       H     2.18352   14.02062  -16.16108
       O     1.33980   13.85061  -15.75112
      H1     0.75528   14.35750  -16.34912
       H     6.15619   18.37942  -17.43305
       O     6.51055   17.53889  -17.09428
      H1     7.33025   17.49880  -17.59970
       H     6.58517   13.11204  -12.80846
       O     6.49941   14.06686  -13.00049
      H1     6.09429   14.13574  -13.86181
       H     6.86136   17.08909  -15.45041
       O     7.05478   16.87526  -14.52443
      H1     7.23428   17.77391  -14.20336
       H     2.33478   12.54093  -12.68313
       O     2.92133   12.99991  -13.31711
      H1     3.16184   12.28446  -13.92250
       H     2.29751   15.12438  -13.07550
       O     1.97741   16.06055  -13.04725
      H1     2.60236   16.61221  -13.58984
       H    -0.99249   13.82664  -13.99268
       O    -0.24069   14.19614  -13.53180
      H1     0.46741   14.12278  -14.14427
       H     5.79984   14.73189  -18.57223
       O     5.66922   14.98199  -17.63387
      H1     5.87971   15.94882  -17.65189
       H     4.39582   17.39589  -15.31995
       O     3.81781   17.81933  -14.67879
      H1     4.34099   17.82359  -13.83800

