60
frame 3 | Written by MDAnalysis XYZWriter (release 2.4.3)
       H    15.65624   13.66849    9.75930
       O    16.49487   13.37241    9.43856
      H1    16.54371   12.50774    9.85548
       H    17.08547   13.43602    4.08349
       O    16.32427   12.90170    4.34491
      H1    16.37303   12.99780    5.31133
       H    14.86598   16.31991    7.32508
       O    14.43169   15.47331    7.56551
      H1    14.59124   15.43527    8.51501
       H    16.31077   18.18255    2.65507
       O    16.27634   17.91641    3.58431
      H1    16.37076   16.95702    3.54104
       H    14.56590   18.00492    5.64132
       O    13.78867   17.74769    5.13331
      H1    13.04915   17.95168    5.73058
       H    17.32780   10.33266    2.34094
       O    17.95501   10.63823    1.65107
      H1    17.94341   11.60598    1.80902
       H    18.42559   17.15595    7.82810
       O    18.32967   17.73168    7.06911
      H1    18.73508   18.56051    7.35960
       H    15.63156   18.37732    8.24079
       O    15.73859   18.12970    7.31650
      H1    16.68518   17.93810    7.23421
       H    12.23710   12.98888    2.36901
       O    12.20903   13.95680    2.22032
      H1    13.09070   14.24397    2.25430
       H    14.09165   10.17108    8.16246
       O    14.30392   11.02974    8.53618
      H1    14.37380   11.59465    7.76269
       H    14.67356   13.63191    6.62675
       O    15.12936   12.76132    6.76777
      H1    15.69684   13.01905    7.50784
       H    15.20312   14.81608    3.68549
       O    14.80374   15.32816    2.97195
      H1    14.16422   15.85226    3.46440
       H    18.42759   15.39451    5.14787
       O    17.50653   15.67076    5.03626
      H1    17.50096   16.51064    5.52466
       H    15.37196    9.81391    3.47191
       O    16.17610   10.22040    3.80640
      H1    15.95764   11.14165    3.80965
       H    17.43328   16.21498    9.69214
       O    17.82758   15.79347    8.91004
      H1    17.29325   15.04432    8.70108
       H    18.47924   17.89975    0.73063
       O    18.99165   17.35006    1.32722
      H1    18.66696   16.46516    1.11358
       H    16.44902   12.99334    0.09352
       O    17.21092   13.60293    0.04794
      H1    16.82339   14.44344    0.29435
       H    15.50285   15.62005    1.44714
       O    15.66604   15.92489    0.55107
      H1    14.83690   15.72669    0.09348
       H    17.87498   18.50965    4.32399
       O    18.69100   19.02385    4.52545
      H1    18.91222   18.66301    5.41018
       H    16.85060    8.60038    6.40826
       O    15.98854    9.03654    6.36645
      H1    16.14375    9.81865    5.80094

