60
frame 3 | Written by MDAnalysis XYZWriter (release 2.4.3)
       H   -17.58460  -13.60575  -13.70887
       O   -17.57216  -12.78127  -13.16327
      H1   -18.39953  -12.84351  -12.67818
       H   -14.57376  -13.36394  -14.65362
       O   -14.08588  -12.99921  -13.89858
      H1   -14.24662  -13.69833  -13.21667
       H   -15.54964   -9.16651  -10.58195
       O   -16.39181   -9.65165  -10.50339
      H1   -16.15434  -10.52487  -10.71462
       H   -17.44700   -8.97963  -12.10748
       O   -18.29415   -8.61867  -12.34798
      H1   -18.60887   -8.23767  -11.52337
       H   -18.40840  -13.40230   -9.98004
       O   -17.92239  -13.78083   -9.25500
      H1   -17.47624  -14.51887   -9.67679
       H   -14.81964  -11.81110  -11.61008
       O   -15.66378  -12.03756  -11.19381
      H1   -16.13481  -12.48453  -11.90118
       H   -18.39067  -19.21750  -12.62526
       O   -18.28846  -18.43711  -13.17692
      H1   -17.31795  -18.39731  -13.26395
       H   -15.18550  -15.54362  -15.31346
       O   -14.85238  -14.84716  -15.89221
      H1   -15.52491  -14.63416  -16.56049
       H   -16.02817  -15.48875  -12.20386
       O   -15.80874  -15.63729  -13.14019
      H1   -16.59641  -15.23844  -13.63147
       H   -18.92160  -13.29792  -16.51486
       O   -18.07946  -12.81101  -16.63273
      H1   -17.71104  -13.20461  -17.39393
       H   -18.12289  -15.67346  -15.35931
       O   -17.88105  -14.93341  -14.73831
      H1   -17.74831  -14.22212  -15.34980
       H   -16.17580  -16.69825  -10.15204
       O   -16.83200  -16.06683  -10.52596
      H1   -17.60648  -16.62266  -10.70285
       H   -12.63054  -14.06532  -11.61099
       O   -13.50899  -14.36793  -11.43356
      H1   -13.78669  -13.94620  -10.59611
       H   -14.18378  -16.57098  -13.00236
       O   -13.54342  -17.27393  -12.89111
      H1   -13.21314  -17.38607  -13.80124
       H   -14.94070  -10.73492  -14.46723
       O   -14.30826  -10.01566  -14.33648
      H1   -13.46396  -10.47575  -14.18945
       H   -15.06638  -12.89895   -9.76904
       O   -14.65912  -13.35834   -9.02938
      H1   -15.37915  -13.76362   -8.59153
       H   -15.85796  -13.60992  -18.76700
       O   -16.28036  -14.16353  -18.10177
      H1   -16.38155  -15.03509  -18.50238
       H   -18.07974  -16.28749  -17.98856
       O   -18.38642  -16.27972  -17.04910
      H1   -18.12185  -17.12200  -16.71587
       H   -12.62884  -12.68786  -14.77492
       O   -11.77660  -12.35651  -15.17941
      H1   -11.86787  -12.66240  -16.09389
       H   -17.57308  -10.87502  -16.28468
       O   -16.83931  -10.23743  -16.19082
      H1   -17.22500   -9.50273  -15.72643

