60
frame 2 | Written by MDAnalysis XYZWriter (release 2.4.3)
       H     0.79612    4.70523    2.86282
       O     1.74581    4.92552    2.89511
      H1     1.88740    5.15869    3.81834
       H     3.59571   13.44755    8.84874
       O     3.49597   13.54017    7.89803
      H1     2.95119   12.80156    7.65522
       H    -1.18566    9.42059    6.60477
       O    -0.59921   10.11732    6.27509
      H1     0.18541    9.61821    6.02325
       H     1.34567   12.73192    6.51453
       O     1.76255   11.88364    6.75789
      H1     2.28793   11.64952    5.99922
       H     6.51446    9.33602    4.58544
       O     6.48493    8.51817    5.06338
      H1     7.05623    8.61680    5.83109
       H     3.72443   11.97180    3.92021
       O     3.72168   11.82841    4.88170
      H1     4.64158   11.97569    5.08395
       H    -0.53032    7.53218    5.55276
       O    -0.26732    7.29584    6.45187
      H1    -0.07380    6.35620    6.40540
       H     3.65576   13.78236    4.91497
       O     4.17893   14.57938    4.94779
      H1     3.52716   15.28311    4.83595
       H     3.23979    6.96651    8.34009
       O     2.35682    6.96781    7.92777
      H1     2.49869    7.58905    7.20020
       H     4.51426    7.46879    0.97299
       O     4.07655    7.96484    1.63524
      H1     3.20250    7.59659    1.60086
       H    -0.65115    8.25493    3.51639
       O    -0.20274    7.41495    3.67218
      H1     0.46465    7.41383    2.97409
       H     4.34174    9.63735    1.42720
       O     4.45101   10.57925    1.36685
      H1     4.51693   10.71669    0.41777
       H     0.58296   11.84515    1.97364
       O    -0.31443   12.09130    2.24174
      H1    -0.13285   12.74488    2.94565
       H     1.37627   10.42233    8.16860
       O     1.48977    9.87240    8.94485
      H1     1.12151    9.05501    8.65374
       H     2.68711   12.83315    1.78306
       O     2.39741   12.04836    2.28482
      H1     3.02084   11.38916    1.96870
       H    -1.18826   10.05348    3.02107
       O    -1.57862    9.77735    3.87595
      H1    -0.96130   10.06105    4.55352
       H     1.38603    6.81764    5.37089
       O     2.30408    6.49751    5.26370
      H1     2.53646    6.15993    6.11710
       H     0.70860    7.19875    0.28446
       O     1.37433    7.15096    0.97820
      H1     1.46821    6.21762    1.22451
       H    -0.54625   10.98772    8.49754
       O    -1.09504   11.45643    9.16508
      H1    -1.74860   11.95003    8.67076
       H     2.65485    8.63456    4.64595
       O     2.13908    9.35784    5.08435
      H1     2.45789   10.14649    4.66613

