60
frame 3 | Written by MDAnalysis XYZWriter (release 2.4.3)
       H     9.77408  -11.30786   -5.82725
       O     9.54543  -11.10879   -4.90133
      H1    10.15757  -11.63546   -4.38683
       H     7.53817   -8.37635   -0.74467
       O     6.71181   -8.38468   -0.24850
      H1     6.32656   -7.54255   -0.42759
       H    11.91654   -6.81429   -0.45623
       O    12.23420   -6.06185   -1.00923
      H1    11.47852   -5.85766   -1.55215
       H    12.22568   -8.46005    1.52835
       O    11.69148   -8.36439    0.75349
      H1    10.94690   -7.89347    1.08902
       H     9.74199  -11.35133   -0.43170
       O     9.42272  -10.69008    0.21962
      H1     8.54299  -11.01222    0.45905
       H    11.64019   -9.77050   -3.45285
       O    11.16192   -9.18111   -4.09981
      H1    10.41282   -9.73233   -4.35006
       H     6.23079  -11.74161   -2.16900
       O     5.99162  -12.45384   -1.57577
      H1     5.15910  -12.16252   -1.14986
       H     9.56538   -8.68226   -2.24430
       O     8.84699   -9.16211   -1.78978
      H1     9.30856   -9.74796   -1.13473
       H    11.74311  -10.40408    1.25407
       O    12.24158  -11.22062    1.09191
      H1    11.70587  -11.88917    1.53955
       H     6.24873   -9.32888   -4.44767
       O     5.89662   -8.89161   -5.23409
      H1     6.31830   -8.02829   -5.14442
       H    11.34266  -12.23599   -2.02969
       O    10.46811  -11.82684   -2.02906
      H1     9.86271  -12.56298   -2.16073
       H    12.03834   -9.18565   -1.02599
       O    12.72187   -9.03550   -1.67356
      H1    13.34937   -9.78261   -1.69284
       H     8.57462   -9.25217    3.91665
       O     7.97719   -9.42039    3.19092
      H1     7.17501   -8.97945    3.47503
       H    10.57251  -14.26535   -0.84925
       O     9.83947  -14.51671   -1.44384
      H1    10.23314  -15.15478   -2.03720
       H     9.12641   -6.42089   -1.65755
       O     8.40759   -6.24887   -1.03435
      H1     8.40567   -5.27174   -0.98968
       H     8.50004   -8.41376    1.87316
       O     9.01730   -7.69962    1.41955
      H1     8.42538   -7.38736    0.72510
       H     7.59615  -10.05381   -2.83001
       O     7.14903  -10.64311   -3.45188
      H1     7.80759  -10.84964   -4.15345
       H     4.64847   -9.88633    1.48156
       O     5.09824  -10.32037    0.74904
      H1     5.54466   -9.54332    0.32627
       H    10.68699   -7.62836   -3.36701
       O    10.17261   -6.94198   -2.92238
      H1    10.07875   -6.29600   -3.63896
       H     6.93069  -12.34419    0.22069
       O     7.25346  -12.17171    1.11179
      H1     6.68659  -11.42050    1.31929

