60
frame 2 | Written by MDAnalysis XYZWriter (release 2.4.3)
       H    -7.61272    8.05536  -10.35062
       O    -7.10757    8.70417  -10.80583
      H1    -7.78109    9.30063  -11.15100
       H    -8.69620    5.74778  -10.19903
       O    -8.79131    6.71381  -10.12507
      H1    -9.38907    6.84668   -9.38310
       H    -4.64239    8.31952   -7.31364
       O    -5.16749    8.51218   -8.09699
      H1    -4.60401    9.12567   -8.58587
       H    -6.51799    3.21273   -6.77237
       O    -5.72467    3.59048   -6.32979
      H1    -5.28884    4.07701   -7.06481
       H    -5.44179    4.63062  -10.06464
       O    -6.11808    3.97575  -10.12613
      H1    -6.85972    4.37701   -9.68255
       H    -4.50224    6.46143   -5.68062
       O    -3.91116    7.21114   -5.90440
      H1    -3.02276    6.85497   -5.94384
       H   -11.03274    4.23908   -6.18330
       O   -10.41558    4.11805   -6.90040
      H1   -10.71767    3.30068   -7.28387
       H    -6.50188    7.08329   -4.04704
       O    -6.76189    7.90444   -3.62762
      H1    -5.91078    8.36242   -3.58180
       H    -8.91481    6.60259   -4.76657
       O    -9.19010    5.72598   -4.43742
      H1    -9.14751    5.20165   -5.24935
       H    -9.22005    3.17728  -10.12638
       O    -9.31052    3.94327   -9.55191
      H1   -10.26066    3.79495   -9.39448
       H    -7.47539    6.70405   -7.12188
       O    -7.19233    6.15924   -7.86296
      H1    -7.61148    6.60180   -8.63103
       H    -4.03192    5.64852   -9.27108
       O    -4.64490    6.27640   -9.70634
      H1    -4.90356    6.86256   -8.96673
       H    -8.27229    8.81329   -6.54684
       O    -8.15386    8.00834   -6.01241
      H1    -7.50883    8.28540   -5.34195
       H    -6.51872    7.14982  -11.80197
       O    -6.46924    6.22189  -12.12684
      H1    -6.24745    5.73125  -11.35326
       H    -7.61094   10.55898   -4.77200
       O    -6.99758   11.01925   -5.38628
      H1    -7.20068   11.94130   -5.25278
       H   -10.19089    9.53154   -6.12814
       O   -10.73886    8.98047   -6.72120
      H1   -10.14216    8.22425   -6.83210
       H    -5.63861    4.92885   -5.10894
       O    -5.59341    5.58133   -4.40120
      H1    -4.67630    5.65778   -4.16800
       H    -6.76034    9.22392   -8.07496
       O    -7.60709    9.72480   -8.03870
      H1    -7.35257   10.44010   -7.50274
       H    -8.26152    2.14972   -7.23232
       O    -7.81006    2.25183   -8.10098
      H1    -8.21791    3.03750   -8.51036
       H   -10.60405    5.81189   -7.77522
       O   -10.66609    6.68172   -8.16841
      H1   -10.92258    6.59072   -9.07751

