60
frame 0 | Written by MDAnalysis XYZWriter (release 2.4.3)
       H     1.93843  -10.87414    3.67040
       O     1.14914  -10.35057    3.45357
      H1     0.81874  -10.71396    2.62146
       H     2.86829  -12.31558    0.97509
       O     3.29784  -11.48462    0.72362
      H1     4.24665  -11.60078    0.73868
       H     2.14128  -12.14731   -6.32489
       O     2.05983  -11.85820   -5.42054
      H1     2.32426  -12.62128   -4.87948
       H    -1.03049  -12.26882   -2.34824
       O    -0.94318  -12.15897   -1.41449
      H1    -1.69783  -11.64252   -1.20290
       H    -0.50015  -14.26393    0.95948
       O    -0.39221  -13.30292    1.03962
      H1    -0.63233  -12.96810    0.14416
       H     3.97226  -13.37243   -4.46533
       O     3.26437  -14.05523   -4.38689
      H1     3.19365  -14.24885   -3.43354
       H     7.45119  -11.79912   -2.21722
       O     6.66887  -11.20837   -2.21340
      H1     5.93066  -11.81680   -2.23866
       H     5.95059  -12.62440    0.27455
       O     5.83080  -13.55612    0.40043
      H1     5.34857  -13.84534   -0.40101
       H     2.70407  -15.14912    0.78033
       O     2.34957  -14.26880    0.88062
      H1     1.40827  -14.33342    0.69318
       H    -1.48496  -15.35105   -2.52009
       O    -1.50317  -15.09472   -3.44487
      H1    -2.06960  -15.77891   -3.78777
       H     0.23112  -12.19321   -4.38214
       O    -0.61401  -12.61488   -4.21109
      H1    -0.36202  -13.54167   -4.21295
       H     3.46842  -12.30025   -2.28479
       O     4.15436  -11.76698   -2.69709
      H1     4.00217  -10.89594   -2.27373
       H     0.32263  -16.34504   -1.71084
       O    -0.35121  -17.02042   -1.53724
      H1     0.15874  -17.82843   -1.54254
       H     4.36917   -8.67456   -1.09057
       O     3.91313   -9.08448   -1.81801
      H1     3.14638   -8.53838   -1.95452
       H    -0.17570   -9.65568    0.15497
       O     0.10495  -10.18288    0.93150
      H1     0.44216  -11.01186    0.57603
       H     4.40972  -15.22213   -1.21526
       O     4.46105  -14.42423   -1.74879
      H1     4.92791  -14.70900   -2.56375
       H     1.67358  -15.15846   -4.62255
       O     0.79969  -15.32582   -5.00950
      H1     0.30118  -15.67289   -4.27218
       H     1.04399  -11.96292   -1.62613
       O     1.92633  -12.41424   -1.54434
      H1     2.34908  -11.90285   -0.84569
       H     1.72719   -8.75810   -5.77229
       O     2.59026   -9.25648   -5.84436
      H1     2.45224  -10.14585   -5.56325
       H     2.56665  -15.30992   -2.11541
       O     1.61084  -15.10747   -2.05161
      H1     1.62283  -14.21792   -1.67587

