60
frame 2 | Written by MDAnalysis XYZWriter (release 2.4.3)
       H     4.76450   16.14533    8.43074
       O     4.43993   16.34258    7.54986
      H1     4.54025   15.48387    7.08508
       H     3.59571   13.44755    8.84874
       O     3.49597   13.54017    7.89803
      H1     2.95119   12.80156    7.65522
       H     5.54015   13.46898    6.27729
       O     5.73789   12.73644    6.89982
      H1     4.93574   12.66176    7.46369
       H     5.39568   18.57332    5.46578
       O     6.00592   18.10896    6.03758
      H1     5.45060   17.46641    6.47140
       H    10.81132   17.16455    7.62750
       O    10.32089   16.35918    7.38196
      H1    10.92294   15.87554    6.80054
       H     8.93172   18.69452   10.71437
       O     9.72406   18.27250   11.07380
      H1    10.34856   18.35783   10.34008
       H     9.50374   17.87163   14.01743
       O    10.46236   17.83189   13.89968
      H1    10.60733   17.98596   12.96952
       H     2.35000   17.59480   13.44952
       O     3.21845   18.03371   13.48982
      H1     3.62563   17.70317   12.67404
       H     3.43575   17.70985    7.49469
       O     2.73180   18.37888    7.52257
      H1     2.77251   18.73525    8.42423
       H     6.98001   17.44567    9.76273
       O     6.68267   16.53969    9.63938
      H1     7.36471   16.12595   10.14271
       H     2.97749   14.02079   10.44682
       O     3.80816   13.58923   10.68980
      H1     4.35718   14.34137   11.06061
       H     6.96754   16.01617    7.98257
       O     7.39492   15.71372    7.16670
      H1     8.32792   15.74774    7.41589
       H     8.50969   15.49060   12.32507
       O     8.89145   15.61518   11.43198
      H1     9.09244   16.57538   11.51462
       H     8.32377   14.03581   10.90444
       O     7.62633   13.40293   10.63334
      H1     7.95480   12.95857    9.83348
       H     7.28107   12.78524    6.03249
       O     8.18104   13.09391    5.91784
      H1     8.16800   13.97295    6.25448
       H     6.26571   14.50926   13.33495
       O     5.60645   14.76425   12.65777
      H1     4.85758   14.23529   12.85957
       H     7.13470   11.89753    8.37818
       O     8.06111   11.71586    8.23795
      H1     8.22799   12.14922    7.39131
       H    10.82971   15.44096    8.86948
       O    11.20830   15.12271    9.69923
      H1    10.46316   15.01973   10.27714
       H     8.44510   14.25016   14.14144
       O     7.84941   15.01270   14.23280
      H1     7.40967   14.89053   15.08231
       H     7.01259   12.49850   11.99539
       O     6.78856   11.73567   12.51783
      H1     5.93076   11.48094   12.18563

