60
frame 2 | Written by MDAnalysis XYZWriter (release 2.4.3)
       H   -12.88378    0.01746    9.46393
       O   -12.63799    0.65392   10.13673
      H1   -12.78979    0.15786   10.94736
       H   -13.35167   -5.59343    7.72853
       O   -14.26496   -5.55347    8.07719
      H1   -14.66543   -4.87755    7.54614
       H   -14.84742   -1.90866    4.96559
       O   -15.49016   -2.14953    4.31066
      H1   -16.27478   -1.65878    4.58668
       H   -15.75845   -0.90451    9.89250
       O   -15.86469   -1.81835   10.19673
      H1   -16.80583   -1.85297   10.41117
       H   -13.87106   -3.50446   11.75733
       O   -13.08771   -3.23528   11.30039
      H1   -13.39846   -3.15156   10.36687
       H   -14.38841   -1.70135    9.14760
       O   -13.49416   -1.74797    8.88396
      H1   -13.46256   -1.74303    7.90021
       H   -15.62603    1.69032    6.39686
       O   -15.27142    0.80975    6.46976
      H1   -16.09692    0.25940    6.43669
       H   -13.19907    1.44010    4.51086
       O   -13.97076    1.06423    4.07243
      H1   -14.60127    0.94782    4.78206
       H   -18.23353    0.42122    9.53533
       O   -18.41232    0.15539   10.47446
      H1   -18.06085    0.92057   10.94914
       H   -18.18063   -1.20143    7.45850
       O   -17.22700   -1.34198    7.43619
      H1   -17.07950   -2.14068    7.97744
       H   -15.81467   -2.95797   12.66720
       O   -15.29371   -3.73950   12.77178
      H1   -15.36544   -4.19109   11.89425
       H   -14.88829   -5.36549    9.83525
       O   -15.60623   -5.20489   10.47934
      H1   -15.53365   -5.98906   11.05825
       H   -18.39599   -1.23524    4.32093
       O   -17.72005   -0.59192    4.07728
      H1   -17.49492   -0.80182    3.18285
       H   -14.89292   -0.95413   13.29738
       O   -15.80287   -0.93071   12.96780
      H1   -15.64863   -1.03077   12.02278
       H   -18.30363   -3.43477   12.22587
       O   -18.40281   -3.04640   11.34547
      H1   -19.36049   -2.79666   11.28265
       H   -15.89295    1.39852    9.28595
       O   -15.37504    0.97087   10.01084
      H1   -14.47299    1.18020    9.74517
       H   -16.67484   -4.19765    9.10742
       O   -17.00420   -3.87429    8.25735
      H1   -17.97220   -3.98967    8.27715
       H   -13.92205   -0.53103    6.30525
       O   -13.75499   -1.49248    6.26418
      H1   -12.93023   -1.54074    5.79331
       H   -17.81473    2.00992    7.55372
       O   -17.42692    1.81349    8.38800
      H1   -17.96250    2.36608    9.02698
       H   -16.38181   -4.63967    6.66055
       O   -15.82919   -4.66295    5.87906
      H1   -15.74708   -3.73044    5.61101

