60
frame 0 | Written by MDAnalysis XYZWriter (release 2.4.3)
       H     5.82528  -12.74062   15.21078
       O     5.17789  -12.06367   14.95917
      H1     4.62762  -11.93410   15.73537
       H     4.25169   -6.14740   17.17854
       O     4.50066   -5.28743   16.84908
      H1     4.94100   -5.52722   16.02811
       H     2.47010   -8.30418   13.63955
       O     2.54900   -7.36300   13.87511
      H1     2.21497   -7.32458   14.79185
       H     3.36212  -14.13041   12.73238
       O     3.14397  -13.20619   12.88283
      H1     3.88507  -12.93307   13.43849
       H     1.38716  -12.77488   12.76510
       O     0.47673  -13.02047   12.85537
      H1     0.15385  -12.20040   13.25846
       H     3.23292  -10.18631   13.06162
       O     2.29060  -10.06349   12.93628
      H1     2.04810  -10.45168   12.09029
       H    -1.27662   -7.11082   17.39501
       O    -1.63569   -7.52536   16.62111
      H1    -1.52282   -8.44414   16.81078
       H     1.01257   -6.00700   16.80043
       O     0.75754   -5.85523   15.88572
      H1    -0.06151   -6.35452   15.82114
       H     1.61070  -10.20701   17.11452
       O     0.85439   -9.73264   16.75633
      H1     0.79484  -10.13996   15.87837
       H     1.24895  -14.16055   14.15158
       O     1.46313  -14.65478   14.94750
      H1     0.69512  -15.22278   15.09565
       H     0.70779   -5.67475   19.07878
       O     1.50113   -5.40855   18.57669
      H1     1.39209   -4.45946   18.46631
       H     3.32856   -8.58791   17.07621
       O     3.63999   -7.88254   16.48239
      H1     4.49259   -8.21529   16.22101
       H     5.96696  -10.56457   18.64745
       O     5.35635  -10.95030   18.06606
      H1     4.93966  -11.62757   18.60201
       H     1.89078  -13.41884   16.08627
       O     2.02565  -12.63795   16.61025
      H1     2.56513  -12.92079   17.37704
       H    -2.75515  -10.95828   18.56278
       O    -2.49259  -10.13574   18.15903
      H1    -3.21511   -9.51816   18.38718
       H     5.93309  -10.03693   16.36075
       O     6.13772   -9.23032   15.93773
      H1     6.35873   -9.51375   15.02873
       H    -1.23128  -13.30649   15.46691
       O    -1.55215  -13.90404   14.79449
      H1    -0.82880  -13.94592   14.14236
       H    -2.92774  -10.26257   16.47759
       O    -3.47448  -10.33618   15.67377
      H1    -4.27830   -9.85750   15.89820
       H     0.36708  -12.44582   16.82777
       O    -0.57847  -12.37416   17.02482
      H1    -0.76793  -11.49147   16.67548
       H     0.81141  -10.14487   13.89813
       O    -0.01532  -10.56417   14.20031
      H1    -0.68540  -10.01660   13.79586

