60
frame 3 | Written by MDAnalysis XYZWriter (release 2.4.3)
       H   -10.04131   -5.09889  -14.73446
       O    -9.35217   -5.69112  -14.33456
      H1    -8.55095   -5.18254  -14.41528
       H   -17.67031   -6.83191  -15.07377
       O   -17.08085   -6.92282  -14.30243
      H1   -17.65618   -7.31003  -13.63468
       H   -10.07130   -8.57477  -16.69947
       O   -10.33288   -7.76222  -17.18884
      H1   -11.15157   -7.42534  -16.74956
       H   -17.52859   -4.41690  -18.27948
       O   -18.19678   -4.61546  -18.93931
      H1   -18.99743   -4.22675  -18.59302
       H    -8.66421   -6.11423  -16.44584
       O    -7.80851   -6.13766  -16.88367
      H1    -8.04808   -5.91802  -17.79328
       H   -14.96325   -1.97345  -17.61112
       O   -14.66581   -1.13572  -17.93682
      H1   -14.38090   -0.65545  -17.14314
       H   -14.61122   -6.76744  -18.44052
       O   -14.89961   -7.31815  -19.18192
      H1   -15.09397   -8.20287  -18.79196
       H   -17.37341   -5.07753  -14.29467
       O   -17.78499   -4.21945  -14.15042
      H1   -18.63860   -4.27104  -14.55520
       H   -14.24752   -4.01662  -12.18901
       O   -14.61015   -3.27293  -11.65823
      H1   -14.78262   -2.60058  -12.34591
       H   -14.75228   -4.05674  -18.65312
       O   -15.31460   -4.09026  -17.85719
      H1   -14.95067   -4.85361  -17.39382
       H   -10.53799   -2.39046  -18.54655
       O    -9.96057   -2.91476  -17.96308
      H1    -9.12412   -2.76185  -18.41976
       H   -13.15677  -10.00159  -17.65054
       O   -14.05283   -9.84942  -17.34299
      H1   -14.01163   -9.69550  -16.41359
       H   -13.14216   -1.90812  -13.72908
       O   -14.00338   -1.47641  -13.67198
      H1   -13.95933   -0.94015  -14.45885
       H   -15.12729   -7.43275  -14.09669
       O   -14.18106   -7.41456  -14.26974
      H1   -13.97196   -8.34364  -14.38029
       H    -9.58410   -7.46666  -13.83952
       O    -9.73749   -8.27763  -13.39786
      H1    -9.19506   -8.89890  -13.92759
       H    -8.79977   -1.45825  -15.18258
       O    -9.70206   -1.40672  -15.50384
      H1    -9.78027   -1.89247  -16.33156
       H   -13.14980   -5.49507  -16.64078
       O   -13.94411   -6.02044  -16.80598
      H1   -14.09007   -6.45248  -15.94903
       H   -12.50541   -5.56054  -11.83262
       O   -13.43561   -5.78890  -11.96078
      H1   -13.49996   -6.26685  -12.79521
       H   -10.85122   -2.62470  -14.24027
       O   -11.71093   -3.00705  -13.99809
      H1   -11.60030   -3.67300  -13.28604
       H   -10.76324   -4.36452  -16.81510
       O   -11.37747   -4.69035  -16.11543
      H1   -11.47459   -3.89679  -15.54968

