60
frame 2 | Written by MDAnalysis XYZWriter (release 2.4.3)
       H    -6.59279   15.70206  -10.19874
       O    -6.56771   15.29016  -11.05926
      H1    -6.62574   14.33785  -10.83318
       H    -8.82482   11.02493  -12.31644
       O    -8.97794   10.23726  -11.76818
      H1    -9.26551    9.57837  -12.41963
       H   -11.38256   11.22917   -8.78786
       O   -12.23249   11.68920   -8.58634
      H1   -12.80131   10.95389   -8.32603
       H    -6.24898   13.41020  -13.35497
       O    -6.89997   12.70609  -13.27940
      H1    -7.58632   13.10797  -12.74070
       H   -13.25083   14.30157  -16.56828
       O   -13.66181   13.97216  -15.72669
      H1   -12.92137   14.00490  -15.08683
       H   -11.35122   15.32061  -14.42467
       O   -10.95658   14.46515  -14.56323
      H1   -10.54241   14.56811  -15.43578
       H    -7.58618   12.97022   -9.33901
       O    -7.25461   12.89249  -10.23797
      H1    -6.61306   12.18992  -10.15802
       H   -12.17528   12.87276  -11.41916
       O   -12.76485   13.31926  -10.82500
      H1   -12.50329   12.90575   -9.96761
       H   -12.21374   15.02549   -9.88185
       O   -11.66544   15.59691   -9.34965
      H1   -10.81806   15.63598   -9.79371
       H    -8.10625   14.26126   -6.78967
       O    -8.12513   14.02448   -7.74722
      H1    -9.02646   13.71986   -7.85777
       H   -13.29929   14.77532  -12.57230
       O   -13.99663   15.36938  -12.81844
      H1   -13.76369   15.60798  -13.72479
       H   -12.31269    9.96974  -11.33032
       O   -11.62565    9.44005  -10.91518
      H1   -10.84422    9.96088  -10.88008
       H    -5.65199    9.93690  -13.13724
       O    -6.27751   10.03897  -13.87013
      H1    -6.59186   10.94174  -13.67434
       H   -12.08559   10.61809  -14.25474
       O   -12.31301   11.55453  -14.42105
      H1   -11.47647   11.97332  -14.13450
       H   -14.17580   11.27419  -11.63135
       O   -13.65860   10.70315  -12.18896
      H1   -13.31584   11.21176  -12.95590
       H    -9.79951   16.87195  -11.37386
       O    -9.67721   15.96602  -11.02654
      H1    -8.72712   15.80867  -11.05444
       H    -9.22738   11.54992  -10.20886
       O    -9.64906   11.31754   -9.35758
      H1    -9.22168   10.50443   -9.09560
       H   -11.34094   13.09691   -7.79285
       O   -10.77805   13.73743   -7.35392
      H1   -10.88332   14.47704   -7.95027
       H    -9.74527   14.20161  -11.56117
       O    -9.69992   13.38092  -12.07020
      H1    -9.95131   13.65444  -12.96787
       H    -8.40611   12.19628  -14.41014
       O    -9.26504   11.75742  -14.53199
      H1    -9.49965   11.93350  -15.45050

