60
frame 2 | Written by MDAnalysis XYZWriter (release 2.4.3)
       H     8.54585   11.07963   12.58432
       O     9.22245   10.53738   13.03066
      H1     9.72844   11.18058   13.57385
       H    14.39142   12.02719   17.26593
       O    14.16971   12.96279   17.01614
      H1    13.23941   12.96286   16.78572
       H    13.76381   15.54707   11.53646
       O    13.53533   15.92881   10.66444
      H1    12.68023   15.53400   10.48222
       H     9.50374   17.87163   14.01743
       O    10.46236   17.83189   13.89968
      H1    10.60733   17.98596   12.96952
       H    12.03467   16.36558   13.49743
       O    12.43473   15.49837   13.49744
      H1    13.38787   15.71212   13.59730
       H    12.99812   11.55653   12.00708
       O    13.75147   11.20483   12.48236
      H1    14.04209   10.39741   12.00568
       H     9.01375    9.85315   15.12197
       O     8.77199    9.08365   15.65134
      H1     9.62593    8.67645   15.84798
       H     9.24892   15.16717   16.31325
       O     9.48960   15.14727   17.27415
      H1     9.70180   16.07396   17.46697
       H     4.38712   11.74840   14.63743
       O     5.31149   11.65592   14.86524
      H1     5.78513   11.85885   14.06053
       H     8.50969   15.49060   12.32507
       O     8.89145   15.61518   11.43198
      H1     9.09244   16.57538   11.51462
       H    10.34675   13.64735   12.49190
       O     9.96364   13.47772   13.37411
      H1    10.28498   14.20434   13.94092
       H    11.74900   10.29438   15.10390
       O    10.90756   10.79111   15.12755
      H1    11.02060   11.41040   15.86667
       H     5.91702   12.98416   15.98180
       O     6.31481   13.80814   16.21626
      H1     5.59786   14.41433   15.99791
       H     8.32377   14.03581   10.90444
       O     7.62633   13.40293   10.63334
      H1     7.95480   12.95857    9.83348
       H     6.26571   14.50926   13.33495
       O     5.60645   14.76425   12.65777
      H1     4.85758   14.23529   12.85957
       H    11.02151   11.52710   12.12115
       O    11.40393   11.99944   11.36911
      H1    11.13224   11.44228   10.62723
       H    10.82971   15.44096    8.86948
       O    11.20830   15.12271    9.69923
      H1    10.46316   15.01973   10.27714
       H    10.94124   14.08112   17.15932
       O    11.42049   13.29489   16.98618
      H1    11.05932   12.67081   17.60874
       H     8.44510   14.25016   14.14144
       O     7.84941   15.01270   14.23280
      H1     7.40967   14.89053   15.08231
       H     7.01259   12.49850   11.99539
       O     6.78856   11.73567   12.51783
      H1     5.93076   11.48094   12.18563

