60
frame 0 | Written by MDAnalysis XYZWriter (release 2.4.3)
       H   -16.47782   -3.92673  -15.72708
       O   -17.11157   -4.48332  -16.20013
      H1   -17.97696   -4.23386  -15.82362
       H   -14.34904    1.92596  -17.21754
       O   -14.94779    2.47811  -17.76954
      H1   -15.03249    1.97947  -18.57373
       H    -8.86302   -6.10936  -18.14909
       O    -8.44209   -6.14867  -19.04443
      H1    -8.03229   -7.01240  -18.99130
       H   -13.93453    4.15097  -17.68331
       O   -13.16441    4.69330  -17.39254
      H1   -13.40380    5.57509  -17.73041
       H   -10.57874   -0.57796  -14.55998
       O   -10.77217   -0.77703  -15.48210
      H1   -11.63048   -0.38357  -15.62751
       H   -12.20973   -1.39482  -18.72963
       O   -13.07641   -1.67385  -19.02012
      H1   -13.32003   -2.39934  -18.45162
       H   -11.18363    4.25929  -17.02413
       O   -10.37609    3.87838  -16.64949
      H1   -10.01109    3.40584  -17.40457
       H   -11.50722   -4.03584  -14.58797
       O   -11.99023   -3.58841  -15.29419
      H1   -11.76173   -2.63953  -15.28348
       H    -8.85326    0.98569  -17.56844
       O    -8.18264    1.14284  -16.91067
      H1    -8.03775    2.07145  -17.02683
       H   -14.18836   -7.05359  -17.58680
       O   -13.59983   -7.18439  -18.30324
      H1   -12.73858   -7.37457  -17.86147
       H    -7.80469   -3.00838  -17.43837
       O    -8.09368   -2.52285  -18.17764
      H1    -7.63993   -1.65722  -18.05624
       H    -9.95003   -1.56384  -18.60913
       O   -10.46082   -0.79557  -18.35339
      H1   -10.31036   -0.69119  -17.39703
       H   -13.13435   -1.55779  -12.63155
       O   -13.90897   -2.04869  -12.35485
      H1   -14.38363   -2.14012  -13.20872
       H   -15.01331   -2.20555  -15.54470
       O   -14.44210   -2.58487  -14.84961
      H1   -13.60132   -2.81512  -15.29309
       H   -14.08051    0.77970  -15.46748
       O   -13.25111    0.89853  -15.91612
      H1   -12.70748    1.40306  -15.32624
       H   -13.14126   -5.29118  -18.24768
       O   -12.84656   -4.45221  -17.80167
      H1   -12.35580   -4.78339  -17.00435
       H   -17.68254    1.80283  -15.84950
       O   -17.14056    1.17749  -16.36092
      H1   -16.74878    1.66869  -17.08677
       H   -16.80995   -0.18864  -18.61876
       O   -17.58370   -0.76370  -18.51460
      H1   -17.55971   -1.31493  -19.30708
       H   -10.42156   -4.88325  -17.32060
       O    -9.86556   -5.50353  -16.85820
      H1    -9.17275   -4.98248  -16.39771
       H   -16.81008   -0.61575  -15.87333
       O   -16.81148   -1.57226  -15.63323
      H1   -17.25982   -1.94098  -16.40761

