60
frame 2 | Written by MDAnalysis XYZWriter (release 2.4.3)
       H   -11.86131   11.20498    9.90744
       O   -11.96510   11.88747    9.25720
      H1   -12.36520   11.43630    8.52552
       H    -9.72233    4.14071    9.79352
       O    -8.89696    4.53396    9.45404
      H1    -8.94461    5.47804    9.72394
       H   -13.79561    3.83504    7.80509
       O   -12.88021    3.64962    7.63536
      H1   -12.53977    4.46175    7.22181
       H   -11.04506    7.13994    5.12478
       O   -10.50500    7.51451    4.42173
      H1    -9.65716    7.11959    4.55536
       H    -9.30843    8.26375   11.66324
       O    -8.77081    8.99093   12.01537
      H1    -8.97854    8.99299   12.92633
       H   -12.34475    9.51844    6.28282
       O   -12.13493    9.84459    7.15981
      H1   -11.63979    9.09227    7.55852
       H   -10.51164    7.01608    9.85884
       O    -9.80572    6.91623   10.50721
      H1   -10.13996    6.33857   11.20449
       H   -12.43626    8.58424    4.18418
       O   -13.04768    9.19351    4.62725
      H1   -13.86177    8.70415    4.75160
       H   -10.55597   10.14344    5.27221
       O    -9.90447   10.84324    5.33562
      H1   -10.26933   11.40910    6.07987
       H   -11.13479    4.50038    5.37952
       O   -11.52129    5.30244    5.70411
      H1   -12.26393    5.45647    5.12160
       H   -11.54123    9.54394   11.39624
       O   -11.31940   10.45356   11.64833
      H1   -10.38808   10.34216   11.88646
       H    -8.48686    9.90533    6.22713
       O    -7.96405    9.54979    6.96594
      H1    -7.09398    9.50229    6.55741
       H   -13.38081    8.93937   10.29044
       O   -13.06715    8.34498   10.98886
      H1   -13.42104    8.81651   11.80134
       H   -12.37763    7.01823    8.05079
       O   -11.58754    7.51453    8.33915
      H1   -10.88623    7.03802    7.85793
       H   -11.67617    3.86755    9.41780
       O   -11.20070    3.33229   10.03444
      H1   -11.59525    2.47972    9.85370
       H    -8.59982    7.80685    6.95524
       O    -9.09021    6.99146    7.03217
      H1    -8.54419    6.44350    7.60070
       H   -16.12543    9.02432    6.79920
       O   -15.65679    8.44465    7.48491
      H1   -16.17466    8.54237    8.28634
       H   -15.36546    6.21761   10.80242
       O   -14.45109    6.07506   10.49611
      H1   -13.98697    6.88982   10.78981
       H   -14.99708   10.01439    7.92243
       O   -14.94891   10.96350    7.90390
      H1   -14.28712   11.13036    7.22104
       H   -14.41666    6.91674    7.26164
       O   -13.76196    6.31159    7.69124
      H1   -14.03985    6.24391    8.60544

