60
frame 3 | Written by MDAnalysis XYZWriter (release 2.4.3)
       H    18.12868    9.61718   15.35811
       O    17.45444   10.12008   15.84100
      H1    17.27708   10.83075   15.25656
       H    18.34974    8.42780   13.44041
       O    18.90393    8.30742   14.21624
      H1    18.54653    7.50886   14.64477
       H    18.74163    2.57222   11.65055
       O    17.83619    2.73761   11.88417
      H1    17.76776    3.69759   12.03783
       H    14.42133    7.18436   16.84569
       O    13.72838    7.50351   17.45606
      H1    13.09837    8.00041   16.91520
       H    14.60678    3.75889   15.49294
       O    15.06209    4.34225   16.09621
      H1    14.30985    4.84780   16.45696
       H    17.59406    9.25459   17.36179
       O    17.60833    8.57730   18.03466
      H1    18.48963    8.67274   18.42190
       H    16.66104    4.27982   14.91055
       O    17.31585    4.25499   14.20323
      H1    17.65841    3.35751   14.32096
       H    14.97929   -0.98220   15.28178
       O    15.63578   -0.27245   15.45413
      H1    16.15285   -0.26113   14.65556
       H    13.08817    2.04695   18.05548
       O    13.37905    1.45630   18.75335
      H1    14.34398    1.36056   18.63147
       H    16.80742    5.38315   10.38217
       O    16.76785    5.62293   11.30907
      H1    15.97798    5.13525   11.62416
       H    15.16621    8.48298   14.28109
       O    14.66457    9.23782   14.66415
      H1    14.98773    9.99125   14.11207
       H    18.14849    7.32159   16.95751
       O    18.34474    6.53842   16.43703
      H1    19.30061    6.46696   16.36591
       H    17.16343    0.26064   12.57023
       O    17.42491    0.14152   13.47635
      H1    18.23733   -0.36932   13.33564
       H    16.46357    5.92264   14.33277
       O    16.29217    6.67100   14.88377
      H1    17.04129    6.66734   15.49017
       H    12.73714    5.98191   17.32541
       O    12.38790    5.45572   16.59962
      H1    11.61820    4.96671   16.98199
       H    15.99749    1.01694   17.16662
       O    16.10513    1.25469   18.09681
      H1    17.01214    0.93495   18.27016
       H    14.73544    9.26247   17.79603
       O    14.77435   10.14860   17.39935
      H1    15.29805   10.01600   16.58980
       H    15.55584    2.76038   13.22187
       O    14.63741    2.79481   13.53734
      H1    14.31588    1.90403   13.51169
       H    17.52558    3.44788   17.45241
       O    17.84204    4.22817   17.89619
      H1    18.05749    4.81512   17.19109
       H    18.65082    1.16035   19.69214
       O    18.63916    0.55277   18.94151
      H1    19.23998    0.96373   18.24646

