60
frame 3 | Written by MDAnalysis XYZWriter (release 2.4.3)
       H     1.89169   17.93540   -3.64281
       O     2.65991   18.36101   -3.24902
      H1     3.37098   17.83444   -3.62837
       H     7.36666   18.00124   -7.53504
       O     7.82834   17.95746   -6.67747
      H1     7.17705   18.16009   -5.99957
       H     1.68335   15.11776   -2.87109
       O     2.62068   14.96140   -3.06550
      H1     2.56486   14.17022   -3.63263
       H     0.28091   19.44034   -3.45596
       O    -0.17960   18.65972   -3.75537
      H1    -0.48125   18.26682   -2.91704
       H     3.80691   14.70158   -9.42348
       O     3.29292   14.48029   -8.63439
      H1     3.87036   13.89345   -8.11976
       H     5.46037   17.47117   -0.96884
       O     6.16447   17.58014   -1.61141
      H1     6.86112   17.99421   -1.06191
       H     0.36870   17.57938   -5.17022
       O     0.66955   16.92577   -5.84002
      H1     0.73933   17.45629   -6.64152
       H     1.49667   14.44013   -7.61601
       O     1.11631   14.25628   -6.73447
      H1     1.05271   15.12181   -6.32601
       H     7.68808   15.08310   -0.75962
       O     6.99983   14.97729   -1.40755
      H1     6.57709   15.82835   -1.51054
       H     3.42434   16.50989   -8.09115
       O     3.88912   16.92661   -7.32396
      H1     4.01000   17.82367   -7.66575
       H     2.38120   13.56557   -5.75710
       O     2.96287   13.23969   -5.03847
      H1     3.81333   13.16842   -5.48664
       H     1.02146   16.74829   -9.51208
       O     0.38170   16.90800   -8.81161
      H1    -0.41671   16.43917   -9.07568
       H     5.22988   16.01735   -8.09279
       O     6.08259   15.87564   -8.50046
      H1     6.11554   14.90960   -8.57748
       H     5.56799   18.15472   -4.40494
       O     6.22079   18.79723   -4.69522
      H1     6.17483   19.50432   -4.07727
       H    -0.45661   13.84230   -4.62445
       O    -0.65838   14.67073   -4.11990
      H1    -0.48253   15.33257   -4.80864
       H     5.22457   15.76019   -5.46718
       O     5.80071   15.00075   -5.74022
      H1     6.10285   15.23282   -6.61799
       H     4.01363   15.98290   -4.00701
       O     4.17640   16.68094   -4.62458
      H1     3.63427   16.43133   -5.39834
       H     5.40787   12.59489   -6.48656
       O     4.66643   12.62385   -7.12092
      H1     4.67355   11.72139   -7.50737
       H     8.61320   15.14645   -3.70308
       O     8.29326   14.59753   -4.40514
      H1     7.41990   14.96303   -4.61577
       H     2.79648   17.11181   -0.68786
       O     3.18570   16.25589   -0.78461
      H1     2.68350   15.84121   -1.48998

