60
frame 5 | Written by MDAnalysis XYZWriter (release 2.4.3)
       H    19.75127  -17.96243   16.28389
       O    19.86537  -17.45314   17.13696
      H1    19.21321  -17.81691   17.73633
       H    18.67485  -10.75465    7.26420
       O    18.49162  -11.60375    7.63231
      H1    18.96820  -12.25025    7.02522
       H    16.73477  -16.60552   13.20370
       O    17.05614  -16.94109   12.34315
      H1    17.97777  -17.21072   12.51385
       H    19.12079  -12.42984   11.23311
       O    18.69189  -12.88299   10.49632
      H1    19.28661  -12.66136    9.81104
       H    18.66444  -19.08661    1.90956
       O    18.74727  -19.82065    2.51741
      H1    17.95729  -20.07386    2.97622
       H    16.58023  -18.83218   16.79161
       O    16.62292  -19.01861   15.82899
      H1    16.46099  -19.99394   15.89104
       H    18.37813  -13.31373   14.03140
       O    18.65004  -14.10820   13.59294
      H1    17.93548  -14.69950   13.78355
       H    16.24401  -18.73195   12.20808
       O    15.90610  -19.62429   12.31144
      H1    14.97703  -19.51999   12.70598
       H    15.54914  -13.19683    8.26090
       O    16.29609  -13.35098    7.61324
      H1    16.84922  -12.56846    7.70392
       H    16.81990  -18.46857    9.28478
       O    17.00579  -19.33411    9.61492
      H1    16.15565  -19.63672    9.98025
       H    13.66269  -14.99556    8.73160
       O    13.75672  -15.26636    7.82334
      H1    14.60691  -14.97484    7.64444
       H    17.33415  -16.62958    4.95150
       O    16.73600  -16.29523    4.31152
      H1    16.51953  -15.42080    4.60559
       H    18.82283  -18.91301    9.42070
       O    19.76126  -18.67611    9.68125
      H1    19.76443  -18.67471   10.69326
       H    18.37826  -19.09434   15.37631
       O    19.32670  -19.05777   15.21822
      H1    19.65049  -19.83170   15.63486
       H    14.19205  -17.11535    7.97575
       O    14.50180  -18.05823    7.92619
      H1    14.41580  -18.45097    8.81003
       H    13.52536  -16.07947   11.18757
       O    13.68237  -15.17298   10.97959
      H1    13.71472  -14.74073   11.89218
       H    17.85916  -14.68219   10.19580
       O    17.40579  -15.51474   10.05746
      H1    17.33883  -15.82778   10.99821
       H    16.44757  -15.83759   15.69628
       O    15.91412  -15.79827   14.91243
      H1    15.20084  -16.43293   14.93044
       H    18.18516  -17.03998    6.67329
       O    19.03910  -17.18117    6.21144
      H1    19.10773  -18.13576    6.10561
       H    16.74159  -16.50517    8.54999
       O    16.96482  -17.21351    7.86713
      H1    16.07856  -17.56823    7.71941

