60
frame 0 | Written by MDAnalysis XYZWriter (release 2.4.3)
       H    -2.94843   -1.17733  -13.89734
       O    -2.18915   -0.59260  -13.94328
      H1    -1.74912   -0.68622  -13.08723
       H    -3.78882   -3.07837   -7.11325
       O    -4.54272   -3.67157   -6.92534
      H1    -5.31648   -3.26857   -7.34709
       H    -0.53979    1.37048   -7.24539
       O     0.38337    1.14842   -7.55074
      H1     0.56544    1.84969   -8.21282
       H    -2.03539   -6.99772  -11.82221
       O    -2.23874   -6.14561  -12.24268
      H1    -1.91101   -5.51290  -11.59964
       H    -5.02775    0.13045  -13.93687
       O    -4.63772    0.66932  -13.26454
      H1    -3.78588    0.24220  -13.08630
       H     1.51823    0.10853   -6.70014
       O     2.08363   -0.44483   -6.18198
      H1     2.84419   -0.57308   -6.73058
       H     2.81776   -0.05263  -11.86408
       O     1.91875    0.28289  -11.93341
      H1     1.92274    0.66013  -12.80289
       H    -4.09531    0.27570   -7.82896
       O    -3.75285   -0.15568   -8.59109
      H1    -3.03833   -0.71555   -8.22287
       H     0.16432   -0.55657  -11.55579
       O    -0.76432   -0.61340  -11.78341
      H1    -1.19709    0.15643  -11.39844
       H    -0.51047   -3.84470   -7.94914
       O    -0.72830   -4.45556   -8.67177
      H1    -1.21363   -5.12649   -8.18688
       H     1.35380   -2.48424   -8.99529
       O     2.31476   -2.52760   -8.97652
      H1     2.54200   -3.41741   -8.67419
       H    -4.69114   -2.68671  -10.68927
       O    -4.24980   -2.67221   -9.82213
      H1    -4.32112   -1.71203   -9.61977
       H    -1.35082   -3.89302  -10.22494
       O    -1.85080   -3.81614  -11.03395
      H1    -2.69807   -3.44492  -10.76273
       H     0.36335   -2.81127   -5.59384
       O     0.95425   -3.01583   -6.33409
      H1     1.25746   -2.13070   -6.60659
       H     2.82273   -2.42135  -12.38430
       O     3.37213   -2.36603  -13.16192
      H1     2.87255   -1.75141  -13.74102
       H    -2.54701    1.70706   -8.63809
       O    -2.31042    2.25492   -7.87374
      H1    -1.85331    3.00223   -8.28944
       H    -0.39498   -3.39158  -12.11520
       O     0.44978   -3.28459  -12.57100
      H1     0.75742   -4.18525  -12.80467
       H    -2.75742    2.04513  -11.52509
       O    -2.52851    1.40453  -10.83944
      H1    -3.32995    0.93433  -10.72361
       H    -1.69722   -1.96555   -6.45039
       O    -2.21646   -2.26709   -7.19953
      H1    -1.59184   -2.26751   -7.91980
       H    -0.26662   -0.61539   -9.11012
       O    -0.52076   -1.54471   -9.10698
      H1    -0.96694   -1.71248   -9.93656

