60
frame 3 | Written by MDAnalysis XYZWriter (release 2.4.3)
       H    13.38301   17.63259   -4.03642
       O    14.24248   17.35587   -3.69510
      H1    14.57104   16.85819   -4.46848
       H    15.37621   16.26347  -10.20780
       O    15.90273   15.65681  -10.77444
      H1    15.43468   14.82081  -10.77756
       H    14.65405   18.58144  -13.31366
       O    13.82967   18.93816  -13.61528
      H1    13.61573   18.34701  -14.36411
       H    14.45053   12.41912  -11.66931
       O    15.14273   13.08309  -11.60383
      H1    15.00419   13.61671  -12.41693
       H    16.99515   17.25231   -6.87302
       O    17.82091   16.88315   -6.63627
      H1    17.60871   16.23824   -5.93435
       H    10.60231   16.62292   -6.84940
       O    11.04145   17.39198   -6.41467
      H1    10.36030   17.86738   -5.93158
       H    11.95681   14.82422   -5.07653
       O    12.08232   15.69077   -4.66173
      H1    11.65351   16.28296   -5.28901
       H    18.27533   15.40184   -8.50956
       O    18.27829   15.53389   -9.47843
      H1    17.33905   15.37410   -9.73179
       H    15.50692   15.64379   -7.18750
       O    14.96287   16.32051   -6.78522
      H1    14.89636   17.00282   -7.48242
       H     9.63748   15.65924  -10.38088
       O    10.06318   15.37127  -11.19354
      H1    11.00349   15.26672  -10.92184
       H    13.63717   14.18308   -8.31115
       O    13.08219   14.98611   -8.18406
      H1    13.62296   15.54491   -7.60150
       H    17.15011   19.08006   -9.39096
       O    16.63489   18.87722  -10.18449
      H1    17.24387   18.39813  -10.75593
       H    13.54574   17.89416   -9.48221
       O    14.35888   17.45164   -9.67851
      H1    14.97877   18.19917   -9.80935
       H    12.38852   12.45869  -10.21072
       O    12.67017   12.40942  -11.13534
      H1    13.11571   13.25264  -11.21242
       H     9.45539   17.17920  -11.59832
       O     9.71724   18.08591  -11.37940
      H1     8.96809   18.60583  -11.67891
       H    15.59091   12.62005   -7.23950
       O    15.86649   13.48093   -6.99584
      H1    16.81281   13.45220   -7.12708
       H    12.87045   15.55888   -9.89144
       O    12.94057   15.17453  -10.78089
      H1    13.58815   15.67107  -11.29839
       H    16.53800   17.44058  -13.85421
       O    16.31019   17.47018  -12.92397
      H1    16.20050   16.52360  -12.66384
       H    13.00836   18.99712   -8.29899
       O    12.17411   18.66103   -8.64960
      H1    11.68123   18.41379   -7.84227
       H    14.61398   14.30254  -14.53474
       O    14.80039   14.75684  -13.66818
      H1    14.34759   15.57946  -13.72919

