60
frame 3 | Written by MDAnalysis XYZWriter (release 2.4.3)
       H   -11.39300    3.61965  -13.05993
       O   -11.41659    2.91672  -12.39933
      H1   -11.80112    3.34750  -11.61349
       H   -12.66040    0.35809   -9.44485
       O   -13.10544    0.09366   -8.60863
      H1   -12.41177    0.31818   -7.93697
       H    -8.82512    3.81890  -12.81382
       O    -8.45557    4.14894  -12.00224
      H1    -7.75955    3.50344  -11.80097
       H    -7.69729   -0.62212  -12.68575
       O    -7.72956    0.27876  -13.06690
      H1    -8.68327    0.41004  -13.03965
       H   -14.89278    2.17876   -9.57106
       O   -15.21950    1.36443  -10.01020
      H1   -14.52778    0.73843   -9.77606
       H   -10.88630    1.24535  -12.93229
       O   -10.51093    0.34803  -12.69021
      H1   -11.22826   -0.23758  -12.91729
       H   -12.67609    5.43925  -10.60231
       O   -12.25395    4.58867  -10.40322
      H1   -13.01832    4.13762   -9.97094
       H    -7.10685    1.54094  -12.11942
       O    -6.67209    2.17898  -11.53259
      H1    -7.02801    1.97487  -10.66050
       H   -10.43178   -1.58481  -10.30476
       O   -11.19454   -2.03238  -10.74135
      H1   -11.79427   -2.28519  -10.03341
       H   -11.10649    3.21069   -8.62074
       O   -11.03142    3.49659   -7.70142
      H1   -10.27764    4.09191   -7.78997
       H   -10.89846    1.67650   -7.05489
       O   -11.13939    0.80567   -6.75723
      H1   -10.34559    0.27548   -6.88134
       H    -9.45427    4.27523  -10.46838
       O    -9.52473    4.81608   -9.66561
      H1   -10.40918    5.20338   -9.69670
       H    -8.75071   -1.11349   -7.64498
       O    -8.51558   -0.84713   -6.73003
      H1    -8.20449   -1.68006   -6.35960
       H   -10.45896    1.72646  -10.83232
       O   -10.91868    1.52193  -10.00450
      H1   -10.38256    0.81203   -9.64868
       H    -8.25535   -0.95596  -10.28666
       O    -8.68760   -0.63549   -9.50794
      H1    -8.26516    0.20790   -9.32284
       H   -12.36516   -0.64932  -11.20255
       O   -13.12910   -0.11292  -11.41910
      H1   -13.74756   -0.78024  -11.69434
       H    -9.94518    1.45396  -15.35474
       O   -10.33982    1.07000  -16.14608
      H1   -10.11662    0.11259  -16.07475
       H   -13.30282    2.65536  -13.27069
       O   -14.08825    2.62981  -13.83552
      H1   -14.74790    2.16833  -13.27427
       H    -7.69372    1.77011   -7.93585
       O    -7.82151    1.80791   -8.89041
      H1    -8.53368    2.45259   -8.96502
       H    -9.38461    3.42255  -14.87019
       O    -9.14996    2.70435  -14.25434
      H1    -8.37365    2.32335  -14.65354

