60
frame 3 | Written by MDAnalysis XYZWriter (release 2.4.3)
       H     3.36012   14.15065    8.38040
       O     3.18276   13.95572    7.45118
      H1     3.92835   13.44232    7.15344
       H    -0.84440   11.86626   10.73610
       O    -0.05398   12.36427   10.92795
      H1     0.39301   12.32484   10.07066
       H    -1.10252   15.71806   10.36315
       O    -1.69031   15.08280   10.82283
      H1    -2.51280   15.57526   10.92052
       H     3.29695   14.34706   14.62894
       O     3.03498   14.89556   15.39796
      H1     3.26420   14.34084   16.16199
       H     1.13828   15.37502   14.93527
       O     0.66737   15.65346   14.15107
      H1     0.33855   16.56466   14.36190
       H     1.03662   15.21490    9.94209
       O     0.97851   15.53900   10.83407
      H1     0.37374   14.89675   11.27496
       H     5.70423   16.81066    9.29168
       O     5.32035   16.03154    8.85921
      H1     4.86129   15.56686    9.54788
       H    -4.04930   14.98844   14.21226
       O    -3.51757   14.20830   14.37645
      H1    -2.84816   14.28784   13.69267
       H    -2.70762   17.97429   13.48993
       O    -2.59227   17.80779   12.52322
      H1    -1.63821   17.61180   12.46426
       H    -1.08696   13.95016   12.24859
       O    -1.17369   13.87046   13.19567
      H1    -0.55616   14.51299   13.60164
       H     2.89278   14.88974   10.76953
       O     3.50248   14.29281   10.34027
      H1     4.28231   14.21295   10.92565
       H     1.23441   11.83708   12.36604
       O     1.23030   11.46052   13.27172
      H1     0.36560   11.75389   13.65795
       H     1.58913   18.15371   10.14736
       O     1.59803   18.59055    9.31304
      H1     0.63425   18.75988    9.23599
       H     3.65357   12.83724   12.69537
       O     3.59452   12.74740   13.65874
      H1     2.66207   12.49600   13.75651
       H    -3.26562   12.86553    9.18072
       O    -2.37070   12.66216    8.82704
      H1    -1.96061   13.52546    8.84283
       H    -2.33028   11.31629   14.47524
       O    -1.46581   11.70594   14.75986
      H1    -1.42833   12.52984   14.24194
       H    -0.84243   15.26654    7.93739
       O    -0.26164   14.54395    8.21954
      H1     0.17203   14.17924    7.46223
       H     0.53286   18.47955   11.96782
       O    -0.03238   17.94812   11.40885
      H1     0.57800   17.21196   11.19922
       H     3.84614   10.82716   10.96619
       O     4.24536   11.68287   11.08125
      H1     3.87264   12.16041   10.33398
       H     1.43336   11.73414    8.04525
       O     1.62831   12.18572    8.87695
      H1     2.13275   12.96152    8.56219

