60
frame 3 | Written by MDAnalysis XYZWriter (release 2.4.3)
       H   -14.18379  -12.32035   18.33826
       O   -14.14272  -12.40007   19.30743
      H1   -14.15071  -11.52361   19.62619
       H   -11.05460  -13.32988   16.48606
       O   -10.60991  -12.49282   16.22251
      H1   -10.02945  -12.80001   15.50460
       H   -12.79449   -5.97426   15.73170
       O   -12.91771   -5.34691   15.01922
      H1   -13.80661   -5.64765   14.67702
       H   -13.46912  -12.43014   11.42675
       O   -13.71390  -12.69314   10.50580
      H1   -14.01149  -13.61735   10.55630
       H   -13.00330  -14.77511   14.12274
       O   -13.41437  -14.02736   14.59529
      H1   -13.45038  -13.35454   13.91376
       H   -13.79575   -9.76465   10.15952
       O   -13.82420   -9.00481   10.76957
      H1   -13.22244   -8.35552   10.38662
       H    -8.23726   -8.13076   12.81114
       O    -9.03530   -8.59436   12.97242
      H1    -8.86483   -8.94883   13.84772
       H   -11.88624  -11.00201   15.38151
       O   -11.94139  -10.13966   14.94467
      H1   -12.82579   -9.84338   15.21116
       H   -10.14564   -8.27240   18.76750
       O   -10.03010   -7.91898   17.89583
      H1    -9.70517   -7.02868   18.05845
       H   -15.74844  -14.59853   12.54409
       O   -15.27874  -13.73683   12.52511
      H1   -15.00019  -13.55339   13.44511
       H   -13.55859   -7.41848   17.29327
       O   -12.79262   -7.49029   16.73316
      H1   -12.04342   -7.46080   17.37376
       H   -11.43093   -8.19187   10.79278
       O   -11.75109   -7.27455   10.81498
      H1   -11.52203   -6.99895   11.71856
       H   -15.12633   -8.33438   14.44949
       O   -15.26584   -9.24417   14.73641
      H1   -16.19845   -9.44677   14.50313
       H    -9.84122   -9.38281   11.63334
       O   -10.47439   -9.76009   11.00291
      H1   -11.19855  -10.02999   11.61105
       H   -15.67949  -10.53046   18.24497
       O   -16.44860  -10.17959   18.73398
      H1   -16.32698  -10.51999   19.62978
       H   -10.73981   -5.96692   13.85989
       O   -10.14585   -6.24940   13.17891
      H1    -9.86563   -7.11149   13.50785
       H    -9.41811   -8.98570   16.18257
       O    -8.64062   -9.17412   15.62868
      H1    -7.87261   -8.78008   16.06757
       H   -14.66576   -9.94560   16.26521
       O   -14.09393  -10.42765   16.85698
      H1   -13.51277   -9.69086   17.10492
       H   -14.10221  -10.57119   12.79117
       O   -13.41125  -11.23251   12.95535
      H1   -12.91622  -10.83713   13.69089
       H   -15.97711   -6.34736   14.60001
       O   -15.20855   -6.60741   14.07811
      H1   -15.32034   -6.06028   13.29333

