60
frame 0 | Written by MDAnalysis XYZWriter (release 2.4.3)
       H     7.55854   -7.18952  -11.31105
       O     7.94025   -6.63461  -11.99255
      H1     7.25296   -6.01541  -12.25609
       H    10.62827   -9.02398  -10.18400
       O    11.42778   -9.40507  -10.54473
      H1    11.48448   -9.00447  -11.37805
       H     4.60338   -8.03920  -11.64626
       O     5.14339   -8.08224  -10.84864
      H1     5.09593   -9.01210  -10.61426
       H    11.49993   -9.38642  -15.51433
       O    11.06277   -8.52238  -15.55725
      H1    11.70376   -7.96495  -16.00489
       H     5.72946   -6.75284  -15.36413
       O     5.23773   -7.56820  -15.28261
      H1     4.75228   -7.41969  -14.44288
       H     7.95340   -6.08272  -15.13524
       O     7.04898   -5.72985  -15.08164
      H1     7.02435   -5.15892  -15.89033
       H    11.54837   -8.31779  -13.94579
       O    11.57510   -8.08650  -13.02191
      H1    10.93376   -7.36247  -12.93932
       H     4.95568   -6.46673  -10.59952
       O     4.76771   -5.49940  -10.72253
      H1     4.55904   -5.16725   -9.81703
       H     8.97868   -7.37057   -8.85245
       O     9.52567   -6.57538   -8.98184
      H1     8.77633   -5.90828   -9.08641
       H     5.34890   -9.51147  -15.86429
       O     4.76308  -10.25748  -15.83141
      H1     5.25306  -10.91851  -16.33761
       H     9.50673   -2.35461  -13.09983
       O     8.66030   -2.33322  -13.58733
      H1     8.13503   -3.03242  -13.19251
       H     8.18316   -9.84309  -10.29912
       O     8.71072   -9.33455   -9.67091
      H1     8.47305   -9.77977   -8.83982
       H     6.57700   -5.73744   -8.99140
       O     7.17278   -5.02090   -9.18573
      H1     6.82005   -4.79543  -10.07407
       H    10.05962   -7.03471  -15.77734
       O     9.36163   -6.36243  -16.00822
      H1     8.98257   -6.66108  -16.83408
       H     6.07461  -10.46817  -13.49992
       O     5.93959  -10.93956  -12.67527
      H1     5.05403  -11.32017  -12.72977
       H     9.62622  -10.79749  -13.33095
       O    10.08352  -11.58373  -13.64567
      H1     9.45186  -11.83985  -14.35969
       H     9.72023   -5.95059  -11.59701
       O    10.65726   -6.02546  -11.44502
      H1    10.60497   -6.29042  -10.52454
       H     8.18569   -9.50117  -15.50263
       O     8.12254  -10.20133  -16.15219
      H1     7.96953  -11.03261  -15.66188
       H     6.29820   -4.67260  -13.71649
       O     6.38133   -4.40689  -12.76199
      H1     5.51079   -4.64865  -12.45254
       H     9.26358   -8.10768  -14.40282
       O     8.65466   -8.51801  -13.78006
      H1     8.34497   -7.77391  -13.24927

