60
frame 0 | Written by MDAnalysis XYZWriter (release 2.4.3)
       H     2.86829  -12.31558    0.97509
       O     3.29784  -11.48462    0.72362
      H1     4.24665  -11.60078    0.73868
       H     1.81237   -7.17837   -1.94080
       O     1.69827   -7.70015   -2.73345
      H1     1.62157   -7.06856   -3.45490
       H     6.90045   -8.26934   -1.15856
       O     6.57369   -8.32470   -0.27496
      H1     7.23711   -7.83068    0.24135
       H     5.37744  -10.44640   -5.16560
       O     5.98417   -9.82918   -4.72073
      H1     6.04302  -10.15547   -3.81244
       H     7.45119  -11.79912   -2.21722
       O     6.66887  -11.20837   -2.21340
      H1     5.93066  -11.81680   -2.23866
       H     3.60016   -5.28572   -1.63750
       O     4.37149   -5.17209   -2.21049
      H1     4.13759   -4.44932   -2.81193
       H     5.95059  -12.62440    0.27455
       O     5.83080  -13.55612    0.40043
      H1     5.34857  -13.84534   -0.40101
       H     1.45852   -4.86339   -1.47097
       O     2.06833   -5.47822   -1.04839
      H1     2.13559   -5.08159   -0.14982
       H     7.38007   -5.83681   -1.77386
       O     7.01965   -5.11512   -1.23770
      H1     6.05229   -5.30541   -1.27239
       H     3.46842  -12.30025   -2.28479
       O     4.15436  -11.76698   -2.69709
      H1     4.00217  -10.89594   -2.27373
       H     4.36917   -8.67456   -1.09057
       O     3.91313   -9.08448   -1.81801
      H1     3.14638   -8.53838   -1.95452
       H     6.42571   -8.14320   -3.41141
       O     7.06763   -7.58752   -2.90537
      H1     7.91878   -7.88176   -3.23119
       H     6.97663   -7.87685    2.71015
       O     6.60580   -7.93215    3.59903
      H1     5.72728   -8.32920    3.41863
       H     0.76557   -7.43381    1.65521
       O     0.76915   -6.55351    2.02319
      H1     0.89679   -6.69109    2.95874
       H     8.45974   -9.09784   -0.73818
       O     9.36013   -9.40205   -0.62049
      H1     9.35375  -10.08044   -1.32473
       H     1.04399  -11.96292   -1.62613
       O     1.92633  -12.41424   -1.54434
      H1     2.34908  -11.90285   -0.84569
       H     4.04591   -6.68021   -3.29639
       O     4.06608   -7.09222   -4.19303
      H1     3.56284   -7.93126   -4.09340
       H     3.99581   -6.29319    2.34889
       O     3.39366   -6.61859    1.65646
      H1     2.50553   -6.38715    1.99946
       H     3.88195  -10.03658    2.50491
       O     4.07705   -9.15030    2.75537
      H1     3.53524   -8.60208    2.16874
       H     6.37062  -10.75190   -0.44169
       O     6.13204  -10.72510    0.49514
      H1     5.96902   -9.74798    0.62303

