60
frame 3 | Written by MDAnalysis XYZWriter (release 2.4.3)
       H     2.50903   -7.02804  -10.73616
       O     2.23870   -6.52982  -11.51851
      H1     1.93479   -5.68868  -11.08878
       H     2.59235   -9.96508   -6.73733
       O     1.65766  -10.05175   -6.52301
      H1     1.27327   -9.58399   -7.27187
       H     1.89923   -7.25495   -4.92725
       O     2.53244   -7.82792   -5.35448
      H1     2.01584   -8.49973   -5.81210
       H     6.40926   -7.14108   -7.89335
       O     5.55377   -7.30587   -8.33071
      H1     5.72643   -7.08578   -9.24598
       H     1.72383   -4.86117   -6.96675
       O     1.08431   -4.20955   -7.33965
      H1     0.26148   -4.29924   -6.81056
       H    -0.52664   -5.37155   -9.89767
       O    -1.15265   -6.08409  -10.02538
      H1    -1.30228   -6.05263  -10.97675
       H     5.82693   -6.62391  -12.04363
       O     6.08347   -6.88391  -11.14335
      H1     6.73954   -7.56660  -11.31769
       H     4.20760  -11.10660   -9.67410
       O     4.41055  -10.32365  -10.19027
      H1     3.89753   -9.69848   -9.71974
       H     3.47229   -4.09106  -10.91002
       O     4.19262   -3.89674  -11.51011
      H1     4.73460   -3.39076  -10.87115
       H     2.95759   -6.62276   -6.65948
       O     3.21317   -6.25299   -7.51545
      H1     4.16101   -6.53376   -7.57308
       H     8.59831   -4.06326   -7.01879
       O     7.90708   -3.54213   -7.45508
      H1     7.12095   -4.07436   -7.34694
       H     4.72370   -8.09229   -2.87061
       O     3.83294   -8.41427   -3.08845
      H1     3.66008   -8.09627   -4.00251
       H     6.24873   -9.32888   -4.44767
       O     5.89662   -8.89161   -5.23409
      H1     6.31830   -8.02829   -5.14442
       H     7.22023   -5.59459   -5.14283
       O     7.24655   -6.26378   -5.82854
      H1     8.07039   -6.76209   -5.63281
       H     1.55729   -3.17588  -10.23047
       O     1.42088   -4.11365  -10.03962
      H1     1.33151   -4.15952   -9.06568
       H     4.42399   -9.51745   -6.34865
       O     4.21580   -9.66960   -7.27570
      H1     4.37885   -8.80181   -7.72373
       H    -0.42937   -7.53418   -9.15345
       O     0.03253   -8.22612   -8.66201
      H1    -0.66111   -8.91377   -8.55139
       H     4.47471   -3.75686   -5.11146
       O     3.77605   -4.35610   -4.81789
      H1     3.38916   -3.96802   -4.01239
       H     2.83607   -7.53349   -8.89746
       O     2.60019   -8.23972   -9.52264
      H1     1.74247   -8.56020   -9.24156
       H     4.96149   -3.28498   -8.00786
       O     5.08359   -3.91209   -7.28492
      H1     4.24210   -4.40029   -7.29413

