60
frame 3 | Written by MDAnalysis XYZWriter (release 2.4.3)
       H     4.50453  -11.63060    8.90645
       O     5.38200  -11.89742    8.53464
      H1     5.91264  -11.14374    8.76321
       H    11.41269   -8.28498    8.37571
       O    11.86353   -9.03931    7.94147
      H1    12.71127   -9.10384    8.37699
       H     8.78574  -11.48644    4.18559
       O     8.72871  -12.35610    3.77520
      H1     8.36669  -12.12330    2.91697
       H     9.37009   -7.76628    5.96505
       O     8.48461   -7.62630    6.35952
      H1     8.68528   -7.03202    7.12290
       H    11.78133   -7.34795   10.21460
       O    10.96642   -7.32436    9.74925
      H1    10.49203   -7.97461   10.25664
       H     6.03119   -9.04167    9.30978
       O     6.28108   -9.47390   10.11264
      H1     7.16142   -9.09719   10.32331
       H    11.80878  -11.54680   11.66102
       O    12.19335  -11.69210   10.78337
      H1    11.46582  -11.43860   10.21040
       H     9.01277  -12.30476    9.83694
       O     8.63976  -13.02803   10.35293
      H1     7.78001  -12.74166   10.69444
       H    10.43860  -10.53301    5.34464
       O     9.74995   -9.87403    5.25570
      H1     9.15334  -10.00761    6.01132
       H     2.88573   -9.60074    5.86249
       O     3.80157   -9.62983    6.18304
      H1     3.96479  -10.52211    6.52313
       H     7.72951  -11.60813    7.56186
       O     7.92004  -10.68452    7.72622
      H1     8.31925  -10.75397    8.58442
       H     8.74906  -14.19258    7.41425
       O     9.26666  -14.55079    8.14858
      H1     9.00132  -14.11081    8.97717
       H     8.57462   -9.25217    3.91665
       O     7.97719   -9.42039    3.19092
      H1     7.17501   -8.97945    3.47503
       H     8.60640   -8.03247   10.95477
       O     8.94251   -8.89442   10.62163
      H1     8.85248   -9.46778   11.39458
       H     5.49537   -8.54865    6.99749
       O     6.14097   -8.10198    7.55377
      H1     7.00662   -8.46439    7.28810
       H     4.08880  -10.63577    3.13087
       O     4.87079  -10.64847    3.70044
      H1     4.57697  -10.15371    4.49679
       H     3.71547  -13.43063    5.94120
       O     3.39006  -13.06919    6.76073
      H1     4.18125  -12.97054    7.28921
       H    11.00731  -12.87659    5.71773
       O    10.87003  -12.06525    6.23482
      H1    11.73361  -11.95737    6.65257
       H     9.93163  -10.19655    9.71809
       O    10.15183  -10.98232    9.20777
      H1    10.65521  -10.62912    8.45860
       H     7.74317  -13.14336    5.27961
       O     7.45995  -13.63093    6.07489
      H1     6.68563  -14.07570    5.76188

