60
frame 3 | Written by MDAnalysis XYZWriter (release 2.4.3)
       H    13.92778  -10.26256   -6.67262
       O    13.53985  -11.14147   -6.75446
      H1    13.83423  -11.44854   -7.64418
       H    13.21311  -13.21085   -1.17928
       O    12.68716  -13.58187   -1.88270
      H1    12.90763  -13.10100   -2.66049
       H    15.64593  -12.59535   -7.75718
       O    16.18692  -11.98713   -7.23467
      H1    17.13984  -12.16754   -7.38635
       H    16.06952  -10.15259   -6.45363
       O    15.89916   -9.27467   -6.11731
      H1    16.68661   -8.87098   -6.48413
       H    14.19847  -11.96312    0.86984
       O    14.99755  -11.84336    0.35565
      H1    15.65856  -12.40133    0.80104
       H    16.62242  -10.55646    0.03633
       O    17.48830  -10.47818   -0.40661
      H1    17.87788   -9.66278   -0.08550
       H    18.93681  -13.44102   -8.04402
       O    18.48873  -13.19654   -7.23702
      H1    19.05359  -12.49144   -6.90100
       H    13.75264  -17.19644   -1.92837
       O    14.45619  -16.80696   -2.46261
      H1    15.04304  -17.54790   -2.55298
       H    15.01148  -14.64187   -0.12911
       O    15.61336  -15.11225   -0.70326
      H1    15.05040  -15.73185   -1.16890
       H    12.80161  -11.73952   -4.99746
       O    12.42356  -12.24506   -4.26639
      H1    12.17081  -13.11820   -4.61564
       H    18.97395  -15.14924   -7.22665
       O    18.78582  -16.08645   -7.02915
      H1    18.61883  -16.07956   -6.06903
       H    14.50555  -14.01368   -5.42716
       O    14.25715  -14.79329   -5.90597
      H1    13.77536  -15.36950   -5.28908
       H    16.08409  -12.81490   -4.03527
       O    15.36168  -12.58229   -4.65749
      H1    15.83768  -12.37529   -5.47688
       H    16.42476  -14.29460   -2.05185
       O    16.83437  -13.92969   -2.86604
      H1    17.18552  -13.08621   -2.53544
       H    19.34613   -8.92044   -3.57808
       O    18.63231   -9.16797   -4.22863
      H1    17.83885   -8.66446   -4.02559
       H    16.11884  -16.39950   -7.53107
       O    16.00188  -16.71336   -6.64383
      H1    15.27860  -16.20902   -6.31850
       H    18.28511  -11.18037   -3.48681
       O    18.05955  -11.64824   -2.67916
      H1    17.88285  -10.94766   -2.00361
       H    15.19466  -11.16796   -1.32562
       O    14.81258  -10.84015   -2.16496
      H1    15.00573  -11.57963   -2.72707
       H    19.37685  -16.18481   -3.09393
       O    18.76341  -15.92773   -3.77492
      H1    18.12129  -15.32195   -3.37768
       H    15.46048   -9.38723   -3.17859
       O    15.29474   -8.59678   -3.71336
      H1    15.70504   -8.78802   -4.55707

