60
frame 3 | Written by MDAnalysis XYZWriter (release 2.4.3)
       H    -1.51616  -15.35428   -8.97820
       O    -2.37188  -15.72552   -9.20805
      H1    -3.00121  -15.10191   -8.91064
       H    -6.62861  -12.12404  -11.41943
       O    -6.48771  -11.44340  -10.75605
      H1    -7.01856  -11.68831   -9.98892
       H    -5.15296  -15.55743   -7.73805
       O    -4.99246  -14.75102   -8.24337
      H1    -5.61793  -14.71473   -8.96775
       H    -4.12896  -11.56796  -13.81223
       O    -3.25330  -11.37054  -13.46379
      H1    -2.97558  -10.56024  -13.95469
       H    -3.20858  -13.08282  -12.15629
       O    -2.56579  -13.33486  -11.45354
      H1    -2.82725  -14.26092  -11.24485
       H    -9.32429  -12.54826   -9.41125
       O    -8.42250  -12.26303   -9.17643
      H1    -8.59128  -11.63348   -8.48192
       H    -4.56012  -15.05588  -12.67851
       O    -5.03448  -14.65409  -13.41170
      H1    -5.60601  -15.35446  -13.68255
       H    -1.91092  -10.49440  -11.17853
       O    -0.96694  -10.26798  -11.10016
      H1    -0.61365  -11.13240  -10.87132
       H    -8.31046  -10.00065  -11.06713
       O    -9.14426   -9.53677  -11.07737
      H1    -9.03416   -8.99571  -11.89666
       H    -7.47817  -15.41073  -11.05297
       O    -7.26129  -15.47406  -10.10386
      H1    -8.12261  -15.34471   -9.67825
       H    -6.15266  -12.02404   -6.25268
       O    -5.44262  -11.37267   -6.18890
      H1    -4.94312  -11.48198   -7.01627
       H    -6.26676  -13.77569   -7.27277
       O    -7.10977  -13.35225   -7.00542
      H1    -7.33695  -12.80338   -7.78865
       H    -1.32964  -11.07524   -7.94164
       O    -1.97226  -10.38203   -7.72281
      H1    -2.10276  -10.37348   -6.77740
       H    -5.66158   -8.77289   -7.74203
       O    -5.99376   -8.98350   -6.87585
      H1    -6.01997   -9.96491   -6.82133
       H    -3.39689  -11.44064   -8.64267
       O    -4.19093  -11.98912   -8.63506
      H1    -4.62293  -11.91742   -9.49093
       H    -6.66903  -13.75409  -12.97038
       O    -7.42691  -13.44111  -12.47991
      H1    -7.99625  -13.13807  -13.22427
       H    -2.68615  -13.93575   -6.46675
       O    -2.32648  -13.56542   -7.28329
      H1    -3.07281  -13.08872   -7.66632
       H    -4.75879  -10.38604  -11.31572
       O    -3.95374   -9.94274  -10.97341
      H1    -4.26082   -9.33622  -10.28533
       H    -4.54251   -7.31061   -9.52384
       O    -4.56001   -8.15414   -9.06127
      H1    -3.92381   -8.07619   -8.33223
       H    -0.75930  -12.77599   -7.73224
       O    -0.05943  -12.30759   -8.15438
      H1     0.52468  -12.16573   -7.41530

