60
frame 3 | Written by MDAnalysis XYZWriter (release 2.4.3)
       H     4.84378   16.20173    7.15969
       O     4.43752   16.38977    6.30402
      H1     4.09094   15.52608    5.99731
       H     3.36012   14.15065    8.38040
       O     3.18276   13.95572    7.45118
      H1     3.92835   13.44232    7.15344
       H     7.93293   16.03052    7.10625
       O     7.26301   15.39892    6.74318
      H1     6.64725   15.28891    7.48679
       H     5.53300   18.39374    4.66958
       O     6.33265   18.01287    5.04176
      H1     6.02361   17.20515    5.47618
       H    -1.10252   15.71806   10.36315
       O    -1.69031   15.08280   10.82283
      H1    -2.51280   15.57526   10.92052
       H     1.03662   15.21490    9.94209
       O     0.97851   15.53900   10.83407
      H1     0.37374   14.89675   11.27496
       H     3.43060   17.81490    6.84138
       O     3.01096   18.63143    7.11183
      H1     2.57283   18.38414    7.92805
       H     5.70423   16.81066    9.29168
       O     5.32035   16.03154    8.85921
      H1     4.86129   15.56686    9.54788
       H     2.89278   14.88974   10.76953
       O     3.50248   14.29281   10.34027
      H1     4.28231   14.21295   10.92565
       H     1.58913   18.15371   10.14736
       O     1.59803   18.59055    9.31304
      H1     0.63425   18.75988    9.23599
       H    -1.75886   17.60859    5.39724
       O    -2.00181   18.05419    4.54352
      H1    -1.27747   17.78775    3.96712
       H     6.25690   18.67891   12.99280
       O     5.58643   18.91597   12.33775
      H1     4.84435   19.12992   12.92337
       H    -1.97159   15.84884    6.30879
       O    -1.66868   16.58539    6.85627
      H1    -2.40843   16.75046    7.45513
       H    -0.84243   15.26654    7.93739
       O    -0.26164   14.54395    8.21954
      H1     0.17203   14.17924    7.46223
       H     0.53286   18.47955   11.96782
       O    -0.03238   17.94812   11.40885
      H1     0.57800   17.21196   11.19922
       H     1.59229   13.74951    5.70449
       O     0.84805   13.16330    6.02471
      H1     0.69502   12.52930    5.30635
       H     7.14964   19.35455    9.46129
       O     6.84553   18.51514    9.75512
      H1     6.26417   18.70606   10.46485
       H     1.63616   16.62407    4.21841
       O     0.96170   16.11870    4.69498
      H1     0.79287   16.65406    5.46075
       H     1.43336   11.73414    8.04525
       O     1.62831   12.18572    8.87695
      H1     2.13275   12.96152    8.56219
       H     3.16194   18.09587    2.76269
       O     2.46348   17.45121    2.56478
      H1     2.91080   16.76414    2.05576

