60
frame 3 | Written by MDAnalysis XYZWriter (release 2.4.3)
       H     2.59235   -9.96508   -6.73733
       O     1.65766  -10.05175   -6.52301
      H1     1.27327   -9.58399   -7.27187
       H     1.89923   -7.25495   -4.92725
       O     2.53244   -7.82792   -5.35448
      H1     2.01584   -8.49973   -5.81210
       H     6.76611  -13.54039   -6.64415
       O     6.20512  -13.66172   -5.86639
      H1     6.84829  -13.70617   -5.14881
       H     6.04911  -14.04407   -2.47022
       O     6.06779  -14.88069   -2.97850
      H1     5.19502  -14.95534   -3.40716
       H     0.71479  -14.54479   -1.29203
       O    -0.11377  -14.06731   -1.24747
      H1    -0.35823  -13.92926   -2.18814
       H     3.83483  -12.61857   -3.96342
       O     3.72839  -13.57444   -3.99450
      H1     3.39404  -13.79531   -3.12207
       H     1.38248  -15.87088   -5.78728
       O     0.45954  -15.89732   -6.05131
      H1     0.39168  -15.21144   -6.73199
       H     1.34245  -11.30613   -2.54638
       O     1.85868  -11.82397   -1.91579
      H1     1.49539  -12.71722   -1.97118
       H     2.44837  -12.84812   -4.87690
       O     1.67766  -12.62118   -5.38088
      H1     1.81431  -11.65820   -5.55619
       H     4.11061  -11.65833    0.15633
       O     3.82004  -12.44035   -0.32925
      H1     3.23469  -12.03397   -0.96229
       H    -0.63292  -11.51411   -3.27265
       O    -0.37929  -10.60228   -3.16306
      H1    -0.95058  -10.32702   -2.44715
       H    -1.76640  -15.80637   -3.67798
       O    -1.76093  -15.47516   -4.59405
      H1    -0.91755  -15.72165   -4.97229
       H     3.47171  -16.71219   -5.17920
       O     2.63715  -17.21577   -5.09925
      H1     2.84745  -18.06070   -5.57303
       H     2.93966  -13.94200   -6.56892
       O     2.75979  -14.67121   -7.14301
      H1     1.90130  -14.47036   -7.50173
       H     0.24046  -13.18163   -4.36061
       O    -0.53951  -13.27126   -3.81215
      H1    -0.96769  -14.08596   -4.19664
       H     5.69637  -16.44732   -5.96645
       O     4.79920  -16.07207   -5.99523
      H1     4.93808  -15.12914   -5.90398
       H     4.42399   -9.51745   -6.34865
       O     4.21580   -9.66960   -7.27570
      H1     4.37885   -8.80181   -7.72373
       H     3.14687  -15.07512   -1.06475
       O     2.55075  -14.80595   -1.77355
      H1     2.25288  -15.65339   -2.05440
       H     5.03837  -11.38548   -4.57141
       O     4.13793  -11.01247   -4.76204
      H1     4.15182  -10.18653   -4.25642
       H    -0.75930  -12.77599   -7.73224
       O    -0.05943  -12.30759   -8.15438
      H1     0.52468  -12.16573   -7.41530

