60
frame 3 | Written by MDAnalysis XYZWriter (release 2.4.3)
       H    17.18250  -14.68127  -17.14233
       O    17.42603  -13.81075  -16.88340
      H1    16.59610  -13.31879  -16.82923
       H    17.71546  -13.25063  -11.42677
       O    18.48356  -12.73276  -11.19848
      H1    18.23081  -11.79115  -11.25381
       H    14.40833  -12.68736  -17.04234
       O    14.88285  -12.58730  -16.20998
      H1    14.46271  -13.31024  -15.65210
       H    15.27997  -11.14210   -9.51243
       O    15.86202  -10.53616   -9.97833
      H1    16.72944  -10.58038   -9.52814
       H    17.76710   -8.44639  -13.87472
       O    17.19291   -7.78518  -14.24698
      H1    17.34857   -7.05804  -13.60623
       H    14.94123  -10.21598  -13.67934
       O    14.68571  -11.15112  -13.76498
      H1    15.39135  -11.52831  -14.30954
       H    15.11058   -6.20904  -14.61478
       O    15.03822   -5.35168  -15.07366
      H1    14.82708   -4.66460  -14.42911
       H    15.92442  -12.10963  -11.01128
       O    15.85179  -12.64897  -11.81163
      H1    15.52226  -12.01214  -12.47346
       H    18.67455   -5.97435  -16.21790
       O    18.85289   -6.90361  -16.23574
      H1    18.38130   -7.20649  -15.46327
       H    16.46153   -7.31896  -19.27191
       O    16.70036   -6.61709  -18.65016
      H1    17.34924   -7.02663  -18.07292
       H    18.10732  -11.38987  -18.32166
       O    17.50455  -11.66345  -19.01470
      H1    16.63761  -11.40676  -18.66513
       H    17.15718  -15.16301  -13.81958
       O    17.72657  -15.01013  -13.03954
      H1    18.57985  -15.05760  -13.47800
       H    18.73890  -10.01704   -7.70602
       O    18.16616   -9.73803   -8.42586
      H1    18.43341   -8.81337   -8.56399
       H    18.75861   -6.76928   -9.10316
       O    18.37288   -7.33895   -9.78138
      H1    17.50539   -6.94324  -10.01572
       H    17.40385   -5.72815  -11.94481
       O    18.11595   -5.66960  -12.59576
      H1    18.24460   -4.73431  -12.68200
       H    15.73054   -6.77940  -10.65362
       O    16.17199   -5.90010  -10.60889
      H1    15.46072   -5.30094  -10.85175
       H    14.56658   -8.66606  -12.40325
       O    14.54767   -8.47318  -13.35641
      H1    15.46086   -8.14337  -13.51929
       H    13.69570   -8.59229  -10.56991
       O    14.58357   -8.30933  -10.56216
      H1    14.98577   -9.00783  -10.01689
       H    19.17736  -11.06928  -14.50967
       O    18.63918  -10.39487  -14.08541
      H1    19.22261  -10.07737  -13.35790
       H    19.01511   -8.91580  -18.86026
       O    18.24519   -8.89543  -18.27357
      H1    18.57246   -8.49829  -17.46764

