60
frame 3 | Written by MDAnalysis XYZWriter (release 2.4.3)
       H    -4.38912   -2.37478  -17.47007
       O    -5.30376   -2.61191  -17.70039
      H1    -5.35245   -3.52323  -17.42123
       H   -10.04131   -5.09889  -14.73446
       O    -9.35217   -5.69112  -14.33456
      H1    -8.55095   -5.18254  -14.41528
       H   -13.07041    1.72865  -18.90342
       O   -12.77084    2.38828  -18.20512
      H1   -12.62160    1.73589  -17.48713
       H    -8.66421   -6.11423  -16.44584
       O    -7.80851   -6.13766  -16.88367
      H1    -8.04808   -5.91802  -17.79328
       H    -7.69729   -0.62212  -12.68575
       O    -7.72956    0.27876  -13.06690
      H1    -8.68327    0.41004  -13.03965
       H   -10.88630    1.24535  -12.93229
       O   -10.51093    0.34803  -12.69021
      H1   -11.22826   -0.23758  -12.91729
       H    -7.83853   -2.92197  -12.21325
       O    -7.53010   -2.14341  -11.70247
      H1    -6.65415   -2.39678  -11.37831
       H   -12.26859    0.88556  -15.80039
       O   -13.14219    0.65391  -16.17582
      H1   -13.71347    1.35109  -15.75521
       H   -14.96325   -1.97345  -17.61112
       O   -14.66581   -1.13572  -17.93682
      H1   -14.38090   -0.65545  -17.14314
       H    -7.46891    1.60288  -16.55621
       O    -6.94313    1.80024  -15.77862
      H1    -6.74526    2.74346  -15.91618
       H    -6.49707   -1.19698  -16.22125
       O    -6.94867   -1.33385  -15.38433
      H1    -6.90938   -0.46948  -14.95520
       H    -9.30624    1.31790  -17.49394
       O    -8.50039    1.60767  -17.98306
      H1    -8.49295    1.08025  -18.80521
       H   -10.53799   -2.39046  -18.54655
       O    -9.96057   -2.91476  -17.96308
      H1    -9.12412   -2.76185  -18.41976
       H   -13.14216   -1.90812  -13.72908
       O   -14.00338   -1.47641  -13.67198
      H1   -13.95933   -0.94015  -14.45885
       H    -8.79977   -1.45825  -15.18258
       O    -9.70206   -1.40672  -15.50384
      H1    -9.78027   -1.89247  -16.33156
       H    -6.98693   -3.36936  -15.11450
       O    -7.23746   -4.24335  -14.77796
      H1    -7.15505   -4.79128  -15.58149
       H    -9.94518    1.45396  -15.35474
       O   -10.33982    1.07000  -16.14608
      H1   -10.11662    0.11259  -16.07475
       H   -10.85122   -2.62470  -14.24027
       O   -11.71093   -3.00705  -13.99809
      H1   -11.60030   -3.67300  -13.28604
       H    -9.38461    3.42255  -14.87019
       O    -9.14996    2.70435  -14.25434
      H1    -8.37365    2.32335  -14.65354
       H   -10.76324   -4.36452  -16.81510
       O   -11.37747   -4.69035  -16.11543
      H1   -11.47459   -3.89679  -15.54968

