60
frame 3 | Written by MDAnalysis XYZWriter (release 2.4.3)
       H    14.04489  -16.52331   16.45510
       O    13.43640  -15.89253   16.90249
      H1    14.04395  -15.47220   17.54169
       H    14.07533  -16.19235   12.09636
       O    14.14058  -17.05926   11.65764
      H1    15.05097  -17.38695   11.83767
       H    15.21419  -12.41058   17.39671
       O    15.62191  -12.91016   16.66096
      H1    16.19892  -12.21145   16.34442
       H    12.23437  -17.03521   12.99593
       O    11.99740  -17.97757   13.03478
      H1    12.82917  -18.39845   12.73602
       H    16.30206  -12.89839    9.81460
       O    16.30664  -13.66500   10.41246
      H1    16.56849  -14.41957    9.87405
       H    18.38165  -10.84961   15.29630
       O    17.41233  -10.84809   15.43809
      H1    17.09802  -11.20542   14.58893
       H    16.46932  -11.67282   12.70280
       O    16.30472  -12.40063   13.33529
      H1    15.44064  -12.20579   13.74472
       H    16.18480  -17.08385   15.86597
       O    15.42712  -17.30334   15.33084
      H1    15.35362  -16.51321   14.79030
       H    16.93269  -13.74760   17.51031
       O    17.38488  -14.26649   18.20275
      H1    17.57070  -13.60266   18.86680
       H    13.90703  -13.29295   15.62488
       O    13.88701  -13.32568   14.64000
      H1    13.05562  -13.78257   14.43890
       H    17.45285  -13.99063   11.64816
       O    18.00153  -14.57841   12.21297
      H1    18.50348  -13.96759   12.77089
       H    16.21516  -14.52179   13.31002
       O    15.57987  -15.19084   13.57098
      H1    14.86107  -14.72643   14.02409
       H    11.77466  -12.98754   17.86406
       O    12.37778  -13.24970   17.16564
      H1    12.61654  -14.13638   17.48104
       H    16.85038  -18.17497   12.67106
       O    16.81036  -17.50862   11.93562
      H1    17.16289  -16.70379   12.29200
       H    18.77273  -17.88759   15.28446
       O    18.14167  -17.61846   15.98955
      H1    18.51990  -18.04522   16.80976
       H     9.86028  -13.33622   15.17914
       O    10.40876  -12.57196   15.36378
      H1    11.17538  -12.93145   15.84747
       H    10.43750  -16.29483   18.15896
       O    11.25726  -16.84764   18.12933
      H1    11.85435  -16.28238   17.62009
       H    13.20224  -13.11693   10.87223
       O    13.59652  -13.97386   10.80247
      H1    14.55301  -13.82963   10.90917
       H    13.46151  -11.45548   13.86781
       O    13.61495  -10.61310   13.44956
      H1    12.71003  -10.28007   13.40526
       H    11.26771  -15.00958   12.86065
       O    12.16648  -14.94157   13.17112
      H1    12.58796  -14.28685   12.59135

