60
frame 3 | Written by MDAnalysis XYZWriter (release 2.4.3)
       H     2.25193    0.54611   14.93032
       O     3.02626    0.03222   14.77071
      H1     2.84743   -0.32328   13.88537
       H     0.56673    1.95506   15.75510
       O     0.94707    1.15411   16.13057
      H1     1.36038    1.43764   16.97351
       H    -0.77546   -6.69205   17.62601
       O    -0.05421   -7.14087   17.17135
      H1    -0.14762   -8.06952   17.43619
       H     1.88839   -7.21665   16.66773
       O     2.52030   -6.51839   16.42348
      H1     1.96788   -5.73456   16.53741
       H    -0.66923   -2.41483   16.02125
       O    -0.66694   -3.39186   15.95180
      H1    -0.94189   -3.50501   15.03818
       H     1.70940   -4.39980   13.63810
       O     2.10958   -3.73484   14.17415
      H1     2.01812   -4.06968   15.06966
       H     0.03871   -1.29585   11.77907
       O    -0.59563   -1.74835   11.21316
      H1    -0.09469   -2.02723   10.43036
       H    -1.77010   -2.69861   17.35310
       O    -2.13031   -2.59484   18.23456
      H1    -1.54623   -1.92688   18.59562
       H    -0.73866    0.24384   18.31645
       O    -0.44838   -0.61815   18.69466
      H1     0.36057   -0.84290   18.19887
       H    -0.62708   -6.58502   15.42035
       O    -0.51176   -6.30488   14.48548
      H1     0.44170   -6.28125   14.44351
       H     0.30303   -1.06272   13.88216
       O     1.04714   -1.20586   13.29484
      H1     1.46255   -1.98492   13.68729
       H     1.66953   -4.29098   17.76851
       O     1.84352   -3.95696   16.88566
      H1     0.94402   -3.69148   16.59143
       H    -0.79921   -3.83501   12.91705
       O    -1.58983   -3.85099   13.49252
      H1    -1.72765   -4.80046   13.66304
       H    -4.23262   -3.04348   17.97336
       O    -4.95166   -3.31071   17.38812
      H1    -4.91789   -2.72784   16.63263
       H     2.39423   -2.17230   17.29940
       O     2.10838   -1.24049   17.33172
      H1     2.37057   -0.94031   16.40759
       H    -0.70368    0.30389   15.47989
       O    -1.17900   -0.46866   15.19361
      H1    -1.73811   -0.17740   14.47231
       H    -3.18708   -0.65033   15.83857
       O    -4.07753   -0.96915   15.85585
      H1    -4.49826   -0.48396   16.55849
       H    -4.11505   -2.43683   13.60067
       O    -3.64139   -2.08142   12.83190
      H1    -2.85638   -2.65305   12.90715
       H    -4.10842   -4.66935   15.73994
       O    -3.66030   -5.31210   15.21346
      H1    -4.36269   -5.70663   14.67163
       H    -2.68226   -5.60001   17.00843
       O    -2.22055   -5.68211   17.86887
      H1    -2.13664   -4.78329   18.18495

