60
frame 3 | Written by MDAnalysis XYZWriter (release 2.4.3)
       H     2.77814    4.15871   -7.95189
       O     1.87552    4.45205   -7.89226
      H1     2.01275    5.39322   -7.69093
       H    -0.39054    4.81049   -7.21892
       O    -1.26903    5.20916   -7.39749
      H1    -1.16495    6.17809   -7.44733
       H     3.90927    4.99565   -3.41625
       O     3.76013    5.38389   -4.26436
      H1     2.81811    5.57511   -4.30592
       H     6.83861    4.85473   -9.07015
       O     6.05704    5.21396   -9.51576
      H1     5.36900    5.00433   -8.87389
       H    -0.26148    6.78536  -12.44439
       O    -0.82417    6.28833  -11.81796
      H1    -1.57567    6.04085  -12.33519
       H     1.47963    2.78066   -4.80623
       O     0.90325    3.20345   -5.47555
      H1     1.42789    3.22225   -6.29216
       H     1.03359   10.03704   -7.86182
       O     1.68401   10.18648   -8.56915
      H1     2.26769    9.41896   -8.51312
       H     4.83961    2.85262   -8.05253
       O     4.22161    3.42171   -8.56840
      H1     3.99435    2.89640   -9.33622
       H     6.66568    5.84868   -6.06941
       O     6.02594    5.14347   -5.90647
      H1     5.25767    5.51854   -5.49073
       H     1.23567    8.48257   -5.49147
       O     1.72013    7.76188   -5.02783
      H1     1.05864    7.09423   -4.91906
       H     1.09239    2.84666   -8.47325
       O     0.39621    2.22266   -8.69703
      H1     0.03271    2.62152   -9.50060
       H    -0.52054    9.02231   -6.47663
       O     0.21933    9.63298   -6.30092
      H1    -0.17228   10.40311   -5.90343
       H     2.46839    5.86555  -10.99392
       O     3.04410    6.64014  -11.00417
      H1     2.53122    7.34991  -11.42595
       H    -1.01305    8.66894   -8.31649
       O    -0.75592    7.79275   -7.98052
      H1     0.18311    7.82600   -8.16003
       H     5.36798    5.33658  -11.26774
       O     5.14070    4.83517  -12.05389
      H1     4.90835    5.49195  -12.69350
       H     1.58949    4.50216   -9.68713
       O     1.18702    4.62380  -10.56055
      H1     0.36722    5.11583  -10.42380
       H     4.98402    8.59069   -7.52590
       O     4.18872    8.51176   -7.00542
      H1     4.59461    8.54201   -6.11405
       H    -1.88081    4.82349   -9.03080
       O    -2.41644    4.86548   -9.86764
      H1    -2.60850    3.93988  -10.03894
       H     1.09182    9.36229  -11.57502
       O     1.94624    9.41134  -12.06135
      H1     1.71903    9.83366  -12.90442
       H     2.57555    6.88640   -9.12390
       O     2.16936    7.09615   -8.26540
      H1     2.81788    7.68155   -7.82050

