60
frame 0 | Written by MDAnalysis XYZWriter (release 2.4.3)
       H    -8.95754    9.88113   -0.54505
       O    -9.14681   10.53654    0.13096
      H1    -8.30644   10.94573    0.30233
       H    -7.04476   13.54590   -0.63636
       O    -7.27827   14.18771   -1.30478
      H1    -7.84639   14.80092   -0.79318
       H    -3.91999   12.00662   -1.07994
       O    -4.41557   11.23312   -1.31754
      H1    -4.15961   11.11467   -2.22728
       H    -9.62716   16.60942    0.11251
       O    -9.31168   15.72139   -0.12028
      H1    -9.86921   15.11302    0.38980
       H    -7.26721    9.51946    3.12771
       O    -6.52274    9.38042    2.58810
      H1    -6.89138    8.93205    1.84569
       H   -10.04138   13.07502    4.36491
       O   -10.21779   13.93176    4.80196
      H1    -9.62054   13.87884    5.55487
       H    -6.73396   11.82913    5.69946
       O    -7.43475   11.52578    6.28087
      H1    -7.53595   10.63032    5.99520
       H    -8.37293   12.92198   -2.08321
       O    -8.93123   12.15770   -2.17824
      H1    -8.94411   11.73734   -1.30135
       H    -4.60894   13.44678    4.44644
       O    -5.38675   12.87401    4.42201
      H1    -6.12031   13.45455    4.24936
       H    -3.64192   13.52213    1.66954
       O    -3.33945   14.26895    1.15805
      H1    -3.46938   13.93424    0.26628
       H   -10.14025   10.94119    3.17065
       O    -9.84570   11.54634    3.88363
      H1    -9.66474   10.95780    4.63807
       H    -9.66349    9.44714    1.45524
       O    -9.67583    9.16697    2.36224
      H1   -10.54444    8.67404    2.41010
       H   -11.30612   14.35159    1.47355
       O   -11.05389   13.58684    0.90392
      H1   -11.60635   13.68807    0.10780
       H    -7.22015   12.77526    1.70050
       O    -7.17400   12.33229    0.82561
      H1    -6.35899   11.83884    0.74520
       H    -5.35969   16.33962    4.71295
       O    -5.24084   16.89006    3.92466
      H1    -6.13008   16.93812    3.56418
       H    -8.49423   13.06290    3.65249
       O    -7.85464   13.69210    3.32515
      H1    -7.94905   14.44488    3.93321
       H   -12.62500   11.59991    2.54061
       O   -12.38484   11.45077    1.61095
      H1   -11.75647   12.16564    1.46685
       H    -8.47851   16.67396    4.99564
       O    -8.15521   16.42823    4.13231
      H1    -8.52924   17.13933    3.58258
       H    -3.22252   11.40030    2.78010
       O    -4.02125   11.56202    2.23932
      H1    -4.70652   11.36995    2.86908
       H    -5.81420    8.77501   -2.29609
       O    -5.42364    8.65606   -1.40741
      H1    -5.40892    9.55638   -1.06016

