60
frame 0 | Written by MDAnalysis XYZWriter (release 2.4.3)
       H   -12.81849   -4.47452   -1.62816
       O   -12.76417   -3.50668   -1.60828
      H1   -12.41969   -3.27494   -0.73484
       H   -16.68782   -2.68927    4.03946
       O   -17.36540   -2.29099    3.49941
      H1   -17.14341   -2.58849    2.61450
       H   -14.86663   -5.65498   -0.43137
       O   -15.60423   -5.51277    0.19128
      H1   -15.34686   -6.11305    0.92224
       H   -11.28394   -4.86143    3.46382
       O   -12.18728   -4.56173    3.24917
      H1   -12.28004   -3.73768    3.78736
       H   -18.04772    1.00193   -0.91451
       O   -17.82243    0.91655    0.02575
      H1   -17.37078    0.04807    0.08863
       H   -11.13678   -2.12646    3.16411
       O   -11.43470   -2.09063    4.05627
      H1   -10.84927   -1.44091    4.46893
       H   -13.11893    0.25042   -2.46431
       O   -13.80534    0.51114   -1.83545
      H1   -13.78053    1.46741   -1.82425
       H   -14.90022    0.68383    2.92841
       O   -14.18309    0.12509    2.60389
      H1   -13.38072    0.62996    2.79429
       H   -15.35005   -2.30388    0.82439
       O   -16.08611   -2.89571    0.99954
      H1   -15.72267   -3.76083    0.76024
       H    -9.41064   -2.99932   -1.97505
       O   -10.23470   -2.55283   -1.64043
      H1   -10.95481   -3.02340   -2.09759
       H   -14.10419   -0.65404    1.14915
       O   -14.01494   -1.26980    0.42481
      H1   -14.00307   -0.69340   -0.35734
       H   -12.78553   -2.32817    1.01063
       O   -11.94066   -2.70685    1.25379
      H1   -12.16190   -3.54084    1.66752
       H   -15.19609   -1.44032   -3.09343
       O   -14.81628   -2.23421   -3.46671
      H1   -14.35864   -2.62885   -2.71547
       H   -12.20650   -1.59259   -3.24813
       O   -11.70016   -0.77451   -3.11981
      H1   -10.94889   -1.06580   -2.61730
       H   -15.53046    3.06255    1.23487
       O   -15.64045    2.79458    0.31470
      H1   -16.41567    2.18571    0.38834
       H   -11.07655    1.32918    2.23938
       O   -11.70846    1.52866    1.53248
      H1   -11.59217    0.79338    0.93883
       H   -10.12260   -0.16124    0.24449
       O   -10.21576   -0.58096    1.11263
      H1   -10.81912   -1.30061    0.98664
       H   -15.78669    0.61816   -2.05761
       O   -16.33359    0.27074   -2.78166
      H1   -17.25796    0.41653   -2.41726
       H   -13.02905   -1.35196    4.68440
       O   -13.65782   -0.93688    5.27997
      H1   -14.19325   -0.37870    4.71800
       H   -10.32952    2.08979   -1.12984
       O   -10.17935    1.14064   -1.17358
      H1   -10.81914    0.83833   -1.80533

