60
frame 7 | Written by MDAnalysis XYZWriter (release 2.4.3)
       H     3.38550   12.31990   -6.65490
       O     3.93761   13.01212   -6.97980
      H1     3.49251   13.89289   -6.85976
       H     9.51377   11.12553   -8.03575
       O     9.84063   12.03602   -8.27583
      H1     9.63025   12.56249   -7.49753
       H     7.60207   12.58079   -5.86421
       O     8.49314   12.74579   -5.54528
      H1     8.37559   13.60213   -5.09469
       H     1.58430   14.07640   -6.24392
       O     1.47753   14.45045   -7.12849
      H1     1.64430   13.70997   -7.73508
       H     2.29997   10.48903   -5.01431
       O     2.08401   11.10777   -5.72368
      H1     1.16519   11.31688   -5.56422
       H     3.70988   16.67272   -8.05339
       O     4.05095   15.92367   -8.59407
      H1     5.00855   15.68191   -8.27478
       H     5.04392   11.69011   -4.01827
       O     5.03124   10.75875   -3.84941
      H1     4.13581   10.54593   -3.65980
       H     5.29402   14.80608  -10.69613
       O     4.63559   14.12614  -10.82325
      H1     3.97802   14.28887  -10.16916
       H     9.71853    9.16873   -6.53624
       O     9.39902    9.30384   -7.44607
      H1     8.70382    8.68408   -7.68654
       H     6.92608   14.51767   -3.70980
       O     7.78035   14.99274   -4.02043
      H1     7.60362   15.94267   -4.10099
       H     6.35665   10.88733   -7.68723
       O     6.34091   11.84521   -7.41933
      H1     5.39995   12.06127   -7.39711
       H     7.24572   11.08390  -11.04716
       O     7.12021   10.76984  -11.93174
      H1     6.58438   11.51982  -12.25537
       H     1.72634   13.17754  -10.61371
       O     1.92071   13.40313   -9.69785
      H1     1.97405   14.38078   -9.75399
       H     5.10099    8.76973   -9.34345
       O     4.91519    8.37895   -8.45752
      H1     4.17893    7.74968   -8.50912
       H     4.49669   14.34862   -3.97953
       O     5.25339   13.76789   -4.20214
      H1     5.32747   13.80032   -5.13812
       H     5.22288    8.30438   -5.14361
       O     6.08512    8.61501   -4.90523
      H1     5.92194    9.45891   -4.50516
       H     6.81505   15.61531   -7.59010
       O     6.26300   14.87457   -7.91998
      H1     6.66650   14.57604   -8.78064
       H     2.21724   14.46359   -3.79106
       O     2.11782   13.87158   -4.55948
      H1     2.24489   12.96582   -4.28974
       H     5.83679   12.85442  -10.05219
       O     6.81989   12.68909   -9.97871
      H1     6.91136   12.43752   -9.07935
       H     2.85724   10.55965   -8.16620
       O     2.24653   10.83385   -8.88883
      H1     2.36801   11.79651   -8.87664

