60
frame 0 | Written by MDAnalysis XYZWriter (release 2.4.3)
       H     2.72763  -11.03504   16.62709
       O     2.70971  -10.07343   16.57943
      H1     2.05612   -9.94098   17.27422
       H    -0.38902  -12.81061   16.56722
       O     0.18161  -12.03953   16.79435
      H1     0.10852  -11.47950   16.01179
       H    -1.25017   -8.49801   15.63980
       O    -1.42498   -7.66514   16.10289
      H1    -1.01981   -7.01430   15.59561
       H     6.50517   -8.66651   18.64195
       O     5.71179   -8.42304   18.15945
      H1     5.06629   -9.11824   18.30301
       H     6.31190   -4.81891   18.26226
       O     5.46103   -5.15578   17.98707
      H1     5.46282   -4.74302   17.09983
       H     1.29243   -6.45256   16.70195
       O     1.80143   -7.13894   17.07014
      H1     2.07249   -7.55782   16.20082
       H     6.14085   -6.34649   16.82799
       O     6.50480   -6.86456   16.05367
      H1     6.38916   -7.71828   16.49652
       H     0.65536   -6.39545   12.54727
       O     1.10931   -6.50404   11.69782
      H1     0.33191   -6.67850   11.11665
       H     1.96482   -9.20229   15.21216
       O     1.81890   -8.39494   14.68643
      H1     2.41440   -8.51414   13.90162
       H     4.86025   -9.23029   14.76009
       O     5.44174  -10.02286   14.86666
      H1     5.21113  -10.27066   15.78604
       H     3.04850   -7.79851   11.83668
       O     3.12401   -8.62198   12.39750
      H1     3.18741   -9.35039   11.74075
       H     1.50992   -9.27500   19.54877
       O     1.15692   -9.27507   18.63802
      H1     1.43349   -8.36753   18.21164
       H    -0.39086   -4.10192   17.25526
       O     0.18376   -4.79107   17.69546
      H1    -0.49282   -5.42305   18.08464
       H     1.25199   -9.16791   12.57011
       O     0.39666   -9.58327   12.32088
      H1     0.05715   -9.14071   11.46194
       H     0.81902   -6.80069   14.45214
       O     0.07885   -6.22396   14.20518
      H1     0.43586   -5.37594   14.56203
       H     6.26862   -6.07103   14.51395
       O     5.88219   -5.80498   13.66483
      H1     5.98356   -6.58081   13.09324
       H     3.63122   -6.13827   15.56966
       O     3.30323   -5.85382   14.71963
      H1     4.18083   -5.82670   14.26517
       H    -1.55434  -10.68401   14.82934
       O    -0.86242  -10.01146   15.04044
      H1    -0.60799   -9.53092   14.27844
       H    -2.04330   -6.35352   14.48387
       O    -2.75510   -5.79902   14.06349
      H1    -3.27839   -5.43261   14.78450
       H     2.71856   -4.39526   17.50631
       O     3.18439   -3.60236   17.69658
      H1     4.04011   -3.98827   17.76766

