60
frame 3 | Written by MDAnalysis XYZWriter (release 2.4.3)
       H    -9.67525    5.72698   -1.04788
       O    -9.84041    6.06475   -1.91323
      H1    -9.43180    6.95383   -1.96423
       H   -12.13342    6.10747   -4.20764
       O   -12.36916    6.73138   -4.88596
      H1   -11.53478    6.94052   -5.33117
       H   -12.53644    8.04869   -2.50151
       O   -12.23266    7.76686   -1.64190
      H1   -11.63275    7.05334   -1.86402
       H   -12.30993    3.94121   -4.45455
       O   -12.05838    4.27165   -3.59715
      H1   -11.08408    4.25749   -3.67237
       H   -14.54029    3.17512   -5.47047
       O   -13.60863    3.23396   -5.66570
      H1   -13.27319    2.42592   -5.24644
       H    -9.75080    2.21601   -4.24339
       O    -9.39992    3.13038   -4.12840
      H1    -8.75388    3.17254   -4.86684
       H   -14.39737    6.85197   -5.56334
       O   -15.31484    6.97731   -5.80425
      H1   -15.65766    7.69430   -5.22853
       H   -15.22596    5.16707   -3.04693
       O   -14.66511    4.35854   -3.07152
      H1   -13.84897    4.67002   -3.45448
       H   -13.64947    0.59259   -3.56688
       O   -13.68051    0.59474   -4.51564
      H1   -13.03490   -0.06435   -4.76278
       H   -11.10649    3.21069   -8.62074
       O   -11.03142    3.49659   -7.70142
      H1   -10.27764    4.09191   -7.78997
       H    -8.99800    2.43705   -1.03286
       O    -9.21044    2.33322   -0.09034
      H1   -10.10268    1.98526   -0.06048
       H    -7.74696    4.53056   -6.69706
       O    -7.58346    3.59473   -6.50334
      H1    -6.78866    3.69252   -5.95770
       H   -10.89846    1.67650   -7.05489
       O   -11.13939    0.80567   -6.75723
      H1   -10.34559    0.27548   -6.88134
       H    -7.84311    6.44291   -5.24244
       O    -8.18048    6.28930   -6.13092
      H1    -8.34700    7.20419   -6.41430
       H   -10.50059   -0.18549   -4.85872
       O   -10.13323    0.37923   -4.14539
      H1    -9.95140   -0.30560   -3.50202
       H   -13.33625    8.09663   -4.21619
       O   -13.97517    8.36120   -3.56296
      H1   -14.19570    9.28969   -3.82463
       H    -8.40833    3.09694   -2.80388
       O    -7.76796    2.91885   -2.09716
      H1    -7.46179    3.80419   -1.87189
       H    -8.40383    7.94466   -3.26859
       O    -8.66779    8.42935   -2.46611
      H1    -9.09536    9.22057   -2.80113
       H   -13.97478    2.65282   -2.36324
       O   -14.16781    1.92386   -1.79301
      H1   -15.07932    1.72022   -2.08561
       H   -12.38994    2.14455    0.20022
       O   -11.74331    1.46697   -0.01449
      H1   -11.94999    0.69617    0.55150

