60
frame 3 | Written by MDAnalysis XYZWriter (release 2.4.3)
       H     8.33116   -5.88475  -13.89132
       O     9.14410   -5.55062  -13.48114
      H1     9.78687   -6.25593  -13.58775
       H    11.02727   -8.37651  -10.31881
       O    11.81518   -8.79538  -10.68475
      H1    11.59784   -8.70553  -11.61398
       H    10.51951  -12.45448  -14.76370
       O     9.79317  -11.96290  -14.38802
      H1     9.80072  -11.11664  -14.88783
       H    13.31441  -11.89486  -15.83497
       O    12.39765  -11.59014  -15.79356
      H1    12.44589  -10.65565  -15.57891
       H    13.46721   -5.36952  -18.37663
       O    13.87342   -5.87893  -19.11371
      H1    14.61884   -6.27702  -18.65482
       H    13.07022   -5.23422  -15.41092
       O    12.11545   -5.34231  -15.54160
      H1    11.74887   -4.62382  -14.98642
       H    14.94123  -10.21598  -13.67934
       O    14.68571  -11.15112  -13.76498
      H1    15.39135  -11.52831  -14.30954
       H     7.29589   -7.44618  -16.67628
       O     7.85843   -7.26532  -15.89597
      H1     8.62572   -6.83643  -16.33986
       H    15.11058   -6.20904  -14.61478
       O    15.03822   -5.35168  -15.07366
      H1    14.82708   -4.66460  -14.42911
       H    10.80068   -8.40689  -13.92276
       O    10.33595   -8.12500  -13.11905
      H1     9.44228   -8.47089  -13.24136
       H    10.55745   -4.47395  -18.45338
       O    11.52713   -4.52411  -18.45583
      H1    11.67162   -4.17183  -19.33916
       H     9.00309  -10.57913  -18.22162
       O     8.83866  -11.44932  -18.62311
      H1     9.67725  -11.93246  -18.62745
       H    11.63659   -8.32034  -15.66423
       O    12.08468   -8.95447  -15.10804
      H1    12.94020   -8.48142  -14.89595
       H    13.05579  -11.23719  -12.77677
       O    12.16007  -10.93239  -12.57573
      H1    11.71683  -10.90031  -13.44303
       H    10.75008  -13.38049  -17.53344
       O    11.36013  -12.86639  -18.11284
      H1    11.86627  -12.30055  -17.49733
       H    14.56658   -8.66606  -12.40325
       O    14.54767   -8.47318  -13.35641
      H1    15.46086   -8.14337  -13.51929
       H     9.94253   -2.97080  -15.06489
       O    10.55346   -3.26109  -14.38747
      H1    10.09296   -3.98084  -13.93393
       H    10.99318   -6.44114  -16.52876
       O    10.47590   -7.23170  -16.77061
      H1    10.94209   -7.51313  -17.58143
       H     8.67690   -8.95450  -15.84576
       O     8.61704   -9.89407  -16.03543
      H1     7.71896  -10.13505  -15.80528
       H     7.31194   -8.28061  -13.96076
       O     7.70709   -8.67656  -13.15057
      H1     6.89860   -9.09225  -12.81198

