60
frame 3 | Written by MDAnalysis XYZWriter (release 2.4.3)
       H   -18.38653  -15.93108   -0.03320
       O   -18.97280  -15.92553    0.68687
      H1   -18.48461  -16.06224    1.46630
       H   -14.48972  -15.91390    9.41933
       O   -14.68988  -14.98995    9.33523
      H1   -15.59374  -14.91532    9.66222
       H   -16.16784  -16.94113   12.80494
       O   -15.82074  -16.28037   13.40605
      H1   -14.88993  -16.19416   13.20040
       H   -17.71709  -12.32671   10.25352
       O   -18.23753  -12.43616    9.45016
      H1   -17.71499  -13.03754    8.91843
       H   -17.19730  -17.92537    1.96345
       O   -16.88226  -18.68001    2.45437
      H1   -17.65396  -19.25163    2.53674
       H   -13.63512  -16.50046    6.62141
       O   -13.88428  -15.59705    6.84870
      H1   -14.14863  -15.66641    7.75182
       H   -17.29768  -16.33714   11.12850
       O   -17.38321  -15.37674   11.06264
      H1   -18.30623  -15.24475   11.26125
       H   -16.66331  -17.04272   -0.10998
       O   -16.17952  -16.68509    0.65017
      H1   -16.02528  -15.75908    0.48114
       H   -18.72931  -14.61273    7.24111
       O   -17.82829  -14.27339    7.34574
      H1   -17.35811  -14.59810    6.54367
       H   -13.83029  -17.80012    4.86785
       O   -13.59271  -18.12875    5.74717
      H1   -14.40052  -18.11229    6.24496
       H   -15.50920  -11.78125    5.48085
       O   -14.56212  -11.98959    5.69687
      H1   -14.55424  -12.11167    6.63020
       H   -18.02729  -11.92434    5.20696
       O   -17.23472  -12.09496    5.74681
      H1   -17.52303  -12.80430    6.34365
       H   -13.27150  -17.74197    9.10573
       O   -14.26876  -17.79359    9.01280
      H1   -14.48420  -18.66552    9.39710
       H   -13.14021  -17.33431    2.21379
       O   -12.93114  -17.17001    3.15204
      H1   -12.46752  -16.30757    3.09152
       H   -15.84621  -14.33674    4.72511
       O   -16.23638  -15.10221    5.15852
      H1   -15.49953  -15.39682    5.68067
       H   -17.60541  -18.60906   12.08653
       O   -16.94723  -18.01114   11.72928
      H1   -16.15563  -18.54325   11.66901
       H   -18.19686  -11.69808    3.18140
       O   -18.98721  -11.70261    3.76280
      H1   -19.21582  -10.74432    3.73166
       H   -18.18555  -17.30901    3.72933
       O   -18.15583  -16.40129    3.45324
      H1   -17.46240  -16.05396    4.03790
       H   -18.65723  -17.09256    7.74299
       O   -18.66074  -17.69929    7.00255
      H1   -17.74435  -17.95989    6.94653
       H   -15.78683  -18.08114    7.81886
       O   -16.10526  -18.32523    6.92417
      H1   -16.15563  -19.28856    6.92835

