60
frame 0 | Written by MDAnalysis XYZWriter (release 2.4.3)
       H    -3.15980   18.55548    2.75183
       O    -2.87559   17.64645    2.83399
      H1    -3.67967   17.22293    3.13000
       H    -3.88993   17.86291    7.94892
       O    -4.45245   17.49761    8.65082
      H1    -4.76222   18.31488    9.06086
       H    -5.38557   18.23433   -1.54006
       O    -5.61485   18.21160   -0.60391
      H1    -4.92717   17.69849   -0.17633
       H    -4.60894   13.44678    4.44644
       O    -5.38675   12.87401    4.42201
      H1    -6.12031   13.45455    4.24936
       H    -3.64192   13.52213    1.66954
       O    -3.33945   14.26895    1.15805
      H1    -3.46938   13.93424    0.26628
       H    -5.26040   16.17564    6.97558
       O    -5.12570   15.58596    6.23472
      H1    -5.69156   14.83880    6.51736
       H    -7.22015   12.77526    1.70050
       O    -7.17400   12.33229    0.82561
      H1    -6.35899   11.83884    0.74520
       H    -6.64957   12.95252    7.17340
       O    -6.21418   13.63801    7.68594
      H1    -6.92965   14.22492    7.91431
       H    -6.98592   17.67233    5.88039
       O    -7.43709   17.99191    6.67798
      H1    -8.22871   18.44180    6.35062
       H    -5.35969   16.33962    4.71295
       O    -5.24084   16.89006    3.92466
      H1    -6.13008   16.93812    3.56418
       H    -8.49423   13.06290    3.65249
       O    -7.85464   13.69210    3.32515
      H1    -7.94905   14.44488    3.93321
       H    -2.18081   13.18858    3.84206
       O    -2.65225   14.01720    3.86923
      H1    -2.88533   14.22276    2.94626
       H    -0.71739   19.34122    4.05077
       O    -0.73833   18.43320    4.39687
      H1    -1.57190   18.06815    4.07416
       H    -3.54449   19.04004    6.03953
       O    -3.46707   18.08368    6.12908
      H1    -3.72511   17.75957    5.24956
       H    -2.63972   14.21928    7.36015
       O    -1.74070   13.92642    7.21059
      H1    -1.36060   14.55625    6.58154
       H    -0.46385   16.33491    0.15050
       O    -1.44688   16.33689    0.05626
      H1    -1.76130   16.44458    0.93444
       H    -1.26245   14.83501    4.63752
       O    -0.43987   15.08048    5.06576
      H1     0.05234   15.37800    4.27505
       H    -8.47851   16.67396    4.99564
       O    -8.15521   16.42823    4.13231
      H1    -8.52924   17.13933    3.58258
       H    -7.27300   16.93513    8.11969
       O    -6.77942   16.29677    8.69666
      H1    -5.89448   16.66500    8.59965
       H    -0.59541   16.89518    7.37437
       O    -0.67447   17.80543    7.13046
      H1    -0.90924   17.77422    6.17774

