60
frame 3 | Written by MDAnalysis XYZWriter (release 2.4.3)
       H    13.31500   16.27092   -2.26229
       O    13.45249   15.88533   -1.36888
      H1    12.85679   15.13093   -1.34010
       H     8.90882   12.60009   -1.81094
       O     9.48326   13.13100   -2.36654
      H1     8.90471   13.60046   -2.99408
       H    11.95681   14.82422   -5.07653
       O    12.08232   15.69077   -4.66173
      H1    11.65351   16.28296   -5.28901
       H     9.07251   12.21101   -8.91184
       O     9.14705   11.81266   -8.03005
      H1     9.40766   12.59265   -7.48091
       H     7.83461   12.35096   -6.87762
       O     7.35141   12.54919   -6.05498
      H1     7.98010   13.04352   -5.54370
       H     7.26058   11.08160   -0.78063
       O     7.53040   12.01383   -0.68329
      H1     6.69930   12.43579   -0.87405
       H     5.24330   12.35976   -2.85072
       O     5.15239   12.98118   -2.12762
      H1     5.96269   13.52380   -2.12879
       H     7.68808   15.08310   -0.75962
       O     6.99983   14.97729   -1.40755
      H1     6.57709   15.82835   -1.51054
       H    11.48539   11.65403   -4.84170
       O    10.54269   11.79287   -4.67597
      H1    10.47085   12.11498   -3.73883
       H     8.86188   15.08790    1.33841
       O     9.13098   15.56559    0.56136
      H1     9.75513   14.94017    0.12579
       H    13.71597   13.64948   -5.74867
       O    13.03677   13.11359   -5.32229
      H1    13.50793   12.85102   -4.51833
       H    10.89586   15.56079   -3.21466
       O    10.14360   15.94445   -2.74949
      H1    10.29184   15.69514   -1.83872
       H     8.08556   18.35973   -3.57610
       O     9.01228   18.48050   -3.31635
      H1     9.42190   17.61652   -3.24031
       H     9.60373   14.21736   -5.58129
       O    10.06647   13.82852   -6.33716
      H1    10.50418   13.04166   -6.00056
       H     5.22457   15.76019   -5.46718
       O     5.80071   15.00075   -5.74022
      H1     6.10285   15.23282   -6.61799
       H     6.72888   11.52981   -4.70016
       O     6.35288   11.20813   -3.86339
      H1     7.11580   10.87954   -3.34884
       H    10.87608   10.86744   -0.18913
       O    10.07998   10.79598   -0.66549
      H1     9.54337   10.28090   -0.04647
       H     8.61320   15.14645   -3.70308
       O     8.29326   14.59753   -4.40514
      H1     7.41990   14.96303   -4.61577
       H    10.12833   10.14090   -3.88986
       O     9.95160    9.56900   -3.10977
      H1     9.96057   10.15960   -2.35057
       H    11.48192   13.96905    0.34561
       O    11.21168   14.37551   -0.49508
      H1    10.88286   13.64103   -1.03253

