60
frame 0 | Written by MDAnalysis XYZWriter (release 2.4.3)
       H    10.28429   -4.12164    4.84976
       O    10.06265   -4.86578    4.26066
      H1    10.32371   -4.44548    3.44904
       H    10.63625   -6.52861   10.34050
       O    10.62787   -6.76078   11.30967
      H1     9.74057   -7.12854   11.47682
       H    15.38752   -3.14850    5.29087
       O    14.99284   -4.01925    5.49007
      H1    15.54266   -4.42937    6.18321
       H    12.48893   -5.26925    2.68469
       O    12.92430   -4.42454    2.77134
      H1    12.99480   -4.11019    1.84882
       H    15.01266   -7.42993    4.63842
       O    14.45869   -6.83640    5.20298
      H1    14.69634   -5.97167    4.87174
       H    13.55426   -6.10529    6.74511
       O    13.43151   -6.03056    7.69003
      H1    12.50489   -5.83208    7.74154
       H    12.03455   -1.34192   10.68688
       O    11.57190   -0.54312   10.41080
      H1    11.62780    0.05029   11.16837
       H     9.12786   -2.45130    9.69036
       O     9.57656   -2.77437   10.47925
      H1    10.09973   -2.02623   10.77998
       H    11.57146   -3.64568    6.91422
       O    10.61189   -3.74120    6.94685
      H1    10.49296   -4.60136    7.39433
       H    12.15704   -7.75879    4.96120
       O    11.23190   -7.54962    5.13953
      H1    11.22525   -6.57828    5.18759
       H    11.36028    0.34365    8.82390
       O    11.37842    0.94118    8.06294
      H1    12.29111    1.24013    8.00666
       H     8.22587   -4.48597    4.39626
       O     7.38747   -4.35604    4.90680
      H1     6.78427   -4.08244    4.21080
       H     9.20589   -0.08674    4.11361
       O     9.56863   -0.97059    4.12509
      H1    10.46853   -0.77353    4.39068
       H    13.24543   -2.91817    8.19864
       O    13.06795   -2.90579    7.26805
      H1    13.81043   -3.41876    6.91304
       H    11.54865   -3.57733   10.31783
       O    12.45252   -3.22693   10.39083
      H1    12.96876   -3.99902   10.65322
       H     7.20847   -5.74626    7.46236
       O     7.86883   -5.67045    8.17789
      H1     7.55949   -4.90633    8.69056
       H    13.35553   -2.61754    3.29668
       O    13.53488   -1.69264    3.48400
      H1    13.05680   -1.51980    4.30587
       H    11.55548   -0.03208    6.38831
       O    12.12387   -0.55069    5.84601
      H1    12.51548   -1.20299    6.44914
       H    10.47064   -6.96512    8.19708
       O    10.47462   -6.08784    8.58311
      H1     9.54910   -5.84495    8.53693
       H     9.51401   -2.61586    7.58067
       O     8.78986   -2.02608    7.79158
      H1     8.10076   -2.41949    7.25579

