60
frame 3 | Written by MDAnalysis XYZWriter (release 2.4.3)
       H    16.34534   -0.57615   -9.57705
       O    16.82694    0.19268   -9.24788
      H1    16.16125    0.87919   -9.38301
       H    19.31763   -1.80567  -17.94768
       O    18.63204   -2.08639  -17.30505
      H1    17.81489   -1.72444  -17.67897
       H    17.94953   -3.42881  -16.39882
       O    17.70915   -4.09666  -15.70043
      H1    16.87675   -4.48861  -15.92992
       H    17.76710   -8.44639  -13.87472
       O    17.19291   -7.78518  -14.24698
      H1    17.34857   -7.05804  -13.60623
       H    16.22573   -4.76163   -6.31087
       O    16.15679   -5.30408   -7.11165
      H1    17.03449   -5.68943   -7.16159
       H    15.11058   -6.20904  -14.61478
       O    15.03822   -5.35168  -15.07366
      H1    14.82708   -4.66460  -14.42911
       H    14.20040   -3.29654  -12.08477
       O    14.90803   -3.93110  -12.20248
      H1    15.68575   -3.38351  -12.12775
       H    18.67455   -5.97435  -16.21790
       O    18.85289   -6.90361  -16.23574
      H1    18.38130   -7.20649  -15.46327
       H    18.73890  -10.01704   -7.70602
       O    18.16616   -9.73803   -8.42586
      H1    18.43341   -8.81337   -8.56399
       H    18.75861   -6.76928   -9.10316
       O    18.37288   -7.33895   -9.78138
      H1    17.50539   -6.94324  -10.01572
       H    13.29345   -6.62221  -10.18901
       O    13.13805   -5.71253   -9.89066
      H1    13.32288   -5.81510   -8.94840
       H    17.40385   -5.72815  -11.94481
       O    18.11595   -5.66960  -12.59576
      H1    18.24460   -4.73431  -12.68200
       H    17.89460   -1.86174  -12.06160
       O    17.54351   -2.75049  -11.78688
      H1    18.26141   -3.01358  -11.18150
       H    17.30521   -0.64666  -13.74796
       O    16.46367   -1.12358  -13.81891
      H1    16.73825   -2.02022  -13.84320
       H    15.73054   -6.77940  -10.65362
       O    16.17199   -5.90010  -10.60889
      H1    15.46072   -5.30094  -10.85175
       H    14.56658   -8.66606  -12.40325
       O    14.54767   -8.47318  -13.35641
      H1    15.46086   -8.14337  -13.51929
       H    14.70790   -4.34003   -9.35247
       O    14.87572   -3.56465   -8.86154
      H1    15.53084   -3.87238   -8.23438
       H    14.30278   -0.47325   -9.48935
       O    14.53765   -1.00453  -10.24667
      H1    14.81168   -1.85836   -9.85756
       H    13.69570   -8.59229  -10.56991
       O    14.58357   -8.30933  -10.56216
      H1    14.98577   -9.00783  -10.01689
       H    19.17736  -11.06928  -14.50967
       O    18.63918  -10.39487  -14.08541
      H1    19.22261  -10.07737  -13.35790

