60
frame 0 | Written by MDAnalysis XYZWriter (release 2.4.3)
       H    -7.88281  -16.30332   10.96954
       O    -8.65820  -16.41474   10.40658
      H1    -8.36406  -17.12414    9.81077
       H   -15.78736  -15.39499    9.69555
       O   -15.20879  -14.73588    9.31117
      H1   -15.73449  -13.93383    9.37427
       H   -15.16756  -16.27578    4.29248
       O   -14.27127  -16.61518    4.19796
      H1   -13.74406  -15.87917    3.90208
       H   -15.22670  -15.42332    5.82185
       O   -14.89074  -14.89030    6.56054
      H1   -15.48036  -14.97406    7.32464
       H    -8.69273  -16.00937    5.66570
       O    -8.66010  -15.06597    5.89834
      H1    -8.56330  -14.97542    6.87601
       H   -11.72960  -16.94788    6.86468
       O   -12.24448  -17.54526    6.29993
      H1   -12.36700  -17.00888    5.51077
       H   -10.76442  -12.32171    7.22612
       O   -10.60192  -12.91843    7.97037
      H1   -11.18824  -12.60078    8.67434
       H    -9.14569  -17.86654    4.44278
       O    -8.59459  -17.11627    4.14172
      H1    -8.39124  -17.35845    3.20941
       H    -8.06992  -15.20003    8.97860
       O    -8.14703  -14.25033    8.77522
      H1    -9.10742  -14.10766    8.65218
       H    -9.81915  -17.03779    8.12131
       O   -10.59610  -16.47914    8.19992
      H1   -10.30457  -15.72187    8.77101
       H   -12.52284  -14.75315    2.35439
       O   -13.46929  -14.90893    2.32080
      H1   -13.51854  -15.78311    1.91362
       H   -14.33282  -18.00926   11.90538
       O   -14.36012  -17.84566   10.95700
      H1   -13.85597  -18.56662   10.59555
       H   -11.18460  -17.20149   12.41625
       O   -11.90746  -16.56961   12.40204
      H1   -11.95144  -16.35735   11.48019
       H   -13.44774  -17.55075    2.59555
       O   -12.92586  -18.04445    1.94883
      H1   -12.43250  -18.64822    2.50768
       H   -12.86440  -14.50884    6.32135
       O   -12.07471  -14.13136    5.93445
      H1   -11.71220  -13.80876    6.79085
       H   -10.20414  -16.16283    3.83196
       O   -11.10534  -15.83177    3.63316
      H1   -11.28391  -15.25571    4.41730
       H   -12.10445  -15.94131    9.46066
       O   -12.06085  -15.13310   10.01441
      H1   -12.93222  -14.76073    9.90917
       H   -17.92409  -15.51237    7.55564
       O   -17.69533  -16.44006    7.43646
      H1   -16.73671  -16.44474    7.52962
       H   -14.05359  -18.00984    7.10707
       O   -15.00745  -18.10715    7.04098
      H1   -15.07994  -18.37624    6.11969
       H    -7.55611  -18.21093    7.51926
       O    -7.88863  -17.40601    7.89692
      H1    -7.13971  -16.81164    7.96134

