60
frame 0 | Written by MDAnalysis XYZWriter (release 2.4.3)
       H    18.35009    1.26027   -1.99308
       O    18.97423    0.62703   -2.38218
      H1    18.54077   -0.23490   -2.29140
       H    16.36602    0.06482   -4.85557
       O    15.97262    0.93409   -4.70413
      H1    15.40008    0.76515   -3.92913
       H    14.68307   -2.55877   -4.20127
       O    15.10455   -2.87028   -3.39121
      H1    15.03414   -3.84317   -3.46472
       H    18.61490    1.89312   -4.39918
       O    18.25227    2.49742   -5.03401
      H1    17.35018    2.22210   -5.18051
       H    11.08371    0.59952   -7.00145
       O    10.88632    1.48112   -6.64174
      H1    11.62866    1.69834   -6.09289
       H    16.41550   -1.94707   -2.40479
       O    17.07175   -1.32923   -2.09373
      H1    16.67098   -0.49826   -2.39504
       H    16.71619    2.13984   -0.56378
       O    17.41818    2.39360   -1.19344
      H1    18.04745    2.89721   -0.62072
       H    15.34787    4.68681   -6.15004
       O    15.02989    4.97113   -5.26809
      H1    15.63514    4.57288   -4.67019
       H    17.39897    3.79460   -3.99794
       O    16.80718    4.08642   -3.31424
      H1    16.65038    3.33662   -2.75328
       H    12.03480    0.16165   -4.21529
       O    12.44516    0.71520   -3.56874
      H1    11.67621    1.14219   -3.16363
       H    14.42447    0.78973   -5.85331
       O    13.81221    1.31461   -6.40776
      H1    13.68469    0.65946   -7.10993
       H    18.37750   -1.43968   -8.13834
       O    17.66133   -1.85054   -7.62821
      H1    17.96422   -1.70170   -6.71925
       H    14.77951    0.52742   -1.34061
       O    14.82515    1.06812   -2.16503
      H1    13.89772    1.15491   -2.49656
       H    13.77406   -3.71607   -6.36804
       O    13.84476   -2.78396   -6.07582
      H1    14.27311   -2.32524   -6.82583
       H    15.11605   -1.93069   -9.25470
       O    15.06326   -1.27389   -8.51422
      H1    15.88122   -1.44325   -7.98479
       H    13.75831    4.15171   -1.28238
       O    14.15681    4.96943   -1.62819
      H1    15.06914    4.74057   -1.62955
       H    17.02863   -2.36921   -4.72171
       O    17.28481   -1.46830   -5.03055
      H1    18.18730   -1.39883   -4.65699
       H    16.56840    2.74799   -7.30709
       O    15.69954    3.18481   -7.44658
      H1    15.09575    2.47145   -7.25391
       H    13.29364    4.29368   -5.25002
       O    12.65934    3.62142   -4.95644
      H1    13.14239    2.79267   -5.07764
       H    13.11454   -1.62478   -1.05684
       O    14.04308   -1.62752   -0.83753
      H1    14.47953   -1.97337   -1.63304

