60
frame 3 | Written by MDAnalysis XYZWriter (release 2.4.3)
       H     1.55781   -5.75569   12.28707
       O     0.92864   -5.04816   12.01239
      H1     1.51520   -4.60143   11.35593
       H     6.39761   -6.44169    4.16411
       O     6.09644   -7.17255    3.65071
      H1     6.11334   -6.74266    2.78581
       H    -0.30778   -6.34020    6.90279
       O    -0.35800   -7.29239    6.76627
      H1     0.33305   -7.43345    6.09760
       H     3.63109   -3.18377    3.86739
       O     2.73187   -3.52933    3.91071
      H1     2.85953   -4.48578    3.77411
       H     0.20888   -3.95829    7.89687
       O    -0.53352   -4.47994    7.56452
      H1    -1.18200   -4.43330    8.28854
       H     4.01836   -6.72344    4.05467
       O     3.23207   -6.38842    3.56608
      H1     3.13741   -6.96645    2.80419
       H     2.46951   -7.36208    6.90409
       O     2.72873   -6.79819    7.63510
      H1     2.28096   -7.15394    8.42253
       H     0.27916   -6.65998    9.23965
       O     0.73346   -6.94905   10.00600
      H1     0.50307   -6.32556   10.71125
       H     1.59409   -1.79242    8.50023
       O     1.58684   -2.75110    8.46496
      H1     2.17502   -2.92683    7.72413
       H     1.29987   -8.62149    4.34007
       O     1.63491   -7.95007    4.91743
      H1     1.98777   -7.31690    4.32114
       H     8.08355   -5.05815    8.10308
       O     8.41037   -5.81290    8.64221
      H1     9.22191   -5.51929    9.04807
       H     6.03119   -9.04167    9.30978
       O     6.28108   -9.47390   10.11264
      H1     7.16142   -9.09719   10.32331
       H     2.88573   -9.60074    5.86249
       O     3.80157   -9.62983    6.18304
      H1     3.96479  -10.52211    6.52313
       H     2.99466   -2.59204    5.35784
       O     3.33683   -2.52538    6.25547
      H1     3.70453   -3.39500    6.49899
       H     5.02548   -5.60937   10.65957
       O     5.27663   -4.83450   10.18325
      H1     5.37572   -5.12563    9.26268
       H     3.60736   -3.95936   10.67428
       O     2.69933   -3.58801   10.71485
      H1     2.51728   -3.46635    9.77494
       H     4.96610   -5.02971    6.91366
       O     4.22945   -4.74558    7.43670
      H1     3.78136   -5.58908    7.58659
       H     5.49537   -8.54865    6.99749
       O     6.14097   -8.10198    7.55377
      H1     7.00662   -8.46439    7.28810
       H     4.55387   -0.23127    8.35929
       O     5.04989   -0.89867    7.89472
      H1     4.30590   -1.45691    7.56245
       H     6.75657   -4.70012    6.17831
       O     6.22963   -5.46665    5.88704
      H1     6.65110   -6.24847    6.27230

