60
frame 3 | Written by MDAnalysis XYZWriter (release 2.4.3)
       H    -4.38912   -2.37478  -17.47007
       O    -5.30376   -2.61191  -17.70039
      H1    -5.35245   -3.52323  -17.42123
       H     0.85414   -4.98436  -14.31122
       O    -0.08008   -4.81619  -14.12826
      H1    -0.08580   -3.90463  -13.85447
       H    -7.83853   -2.92197  -12.21325
       O    -7.53010   -2.14341  -11.70247
      H1    -6.65415   -2.39678  -11.37831
       H    -2.78690   -4.00476  -15.26864
       O    -2.91462   -3.15819  -15.71841
      H1    -2.16045   -3.15763  -16.32310
       H    -4.10940   -5.59174  -12.17283
       O    -4.15593   -6.31940  -11.53783
      H1    -3.38397   -6.83677  -11.81691
       H     2.18948   -1.71291  -12.70349
       O     1.73580   -1.91520  -11.86419
      H1     0.83350   -1.91312  -12.18995
       H    -1.43554   -0.69628  -15.65459
       O    -0.73902   -0.18088  -15.20480
      H1     0.04941   -0.41814  -15.72894
       H    -0.97385   -6.06069  -13.35861
       O    -1.58058   -6.66521  -12.92633
      H1    -1.02483   -7.43593  -12.77575
       H    -5.15260    0.90621  -12.32292
       O    -4.23410    0.80514  -12.59006
      H1    -4.15769   -0.13647  -12.74659
       H    -3.91264   -5.63333  -14.47160
       O    -4.34030   -4.97465  -13.91348
      H1    -5.12926   -4.80164  -14.42351
       H    -4.53909   -1.13290  -10.78174
       O    -4.87104   -2.03428  -11.05250
      H1    -4.28615   -2.24983  -11.80435
       H    -4.39130    0.79024   -8.88990
       O    -4.09382    0.14795   -9.57695
      H1    -3.35851   -0.35309   -9.16627
       H    -0.09925   -4.37596  -16.11061
       O    -0.49715   -3.84326  -16.84458
      H1     0.07177   -4.12771  -17.60168
       H    -0.76468   -1.01032  -12.20205
       O    -0.72251   -1.73228  -12.83164
      H1    -0.47721   -1.24728  -13.62773
       H    -4.91974   -3.52648   -9.89305
       O    -5.12694   -4.45113   -9.67280
      H1    -4.83359   -4.94242  -10.44538
       H    -2.66749   -1.91194  -13.29403
       O    -3.60547   -1.75314  -13.41693
      H1    -3.75960   -2.33574  -14.19664
       H    -3.28183    1.59708  -10.59375
       O    -2.46099    2.14354  -10.52038
      H1    -2.15626    2.13151  -11.44801
       H    -1.44422    3.10859  -13.22527
       O    -1.39894    2.17011  -12.96835
      H1    -1.87948    1.66840  -13.63808
       H    -3.84568   -1.06443  -15.58638
       O    -3.81967   -0.55562  -16.40397
      H1    -3.95094    0.34537  -16.05826
       H    -1.30611    0.79685  -10.64700
       O    -0.96905   -0.09820  -10.73037
      H1    -1.46128   -0.60093  -10.08813

