60
frame 3 | Written by MDAnalysis XYZWriter (release 2.4.3)
       H    -4.30522   -6.38255   10.67284
       O    -4.62309   -5.73523   11.29755
      H1    -5.30584   -6.24695   11.76531
       H    -4.53593   -1.97100    9.08375
       O    -3.75936   -1.98814    8.49826
      H1    -4.14613   -2.01194    7.63316
       H    -3.22426   -0.24474   12.75754
       O    -2.72231    0.61955   12.75586
      H1    -3.34700    1.23369   13.18142
       H    -6.56534   -3.06426   14.97708
       O    -5.69736   -3.33183   14.61140
      H1    -5.97234   -4.01198   14.01157
       H    -0.66923   -2.41483   16.02125
       O    -0.66694   -3.39186   15.95180
      H1    -0.94189   -3.50501   15.03818
       H    -7.30001   -5.06075   11.54713
       O    -7.66070   -4.87788   12.43230
      H1    -8.47135   -5.39663   12.49477
       H     0.03871   -1.29585   11.77907
       O    -0.59563   -1.74835   11.21316
      H1    -0.09469   -2.02723   10.43036
       H    -1.77010   -2.69861   17.35310
       O    -2.13031   -2.59484   18.23456
      H1    -1.54623   -1.92688   18.59562
       H    -6.87356   -5.78446   15.45950
       O    -6.48263   -6.22507   14.71661
      H1    -6.95173   -5.92435   13.94062
       H    -5.94183   -2.88943   10.62749
       O    -5.45740   -2.06875   10.57878
      H1    -4.83597   -2.11612   11.31515
       H    -5.73958   -0.41467   11.39168
       O    -5.68961    0.52732   11.52987
      H1    -5.13667    0.81315   10.81200
       H    -5.53837    0.34646   13.40301
       O    -5.85957    0.55210   14.28582
      H1    -5.40141   -0.07411   14.86699
       H    -0.79921   -3.83501   12.91705
       O    -1.58983   -3.85099   13.49252
      H1    -1.72765   -4.80046   13.66304
       H    -4.23262   -3.04348   17.97336
       O    -4.95166   -3.31071   17.38812
      H1    -4.91789   -2.72784   16.63263
       H    -0.70368    0.30389   15.47989
       O    -1.17900   -0.46866   15.19361
      H1    -1.73811   -0.17740   14.47231
       H    -1.87511   -6.89224   13.55969
       O    -2.63583   -7.16564   13.02470
      H1    -3.13793   -6.34131   13.00841
       H    -3.18708   -0.65033   15.83857
       O    -4.07753   -0.96915   15.85585
      H1    -4.49826   -0.48396   16.55849
       H    -4.11505   -2.43683   13.60067
       O    -3.64139   -2.08142   12.83190
      H1    -2.85638   -2.65305   12.90715
       H    -2.79370   -4.27215   10.51080
       O    -2.40091   -4.48735    9.67959
      H1    -3.14705   -4.12279    9.15613
       H    -4.10842   -4.66935   15.73994
       O    -3.66030   -5.31210   15.21346
      H1    -4.36269   -5.70663   14.67163

