60
frame 3 | Written by MDAnalysis XYZWriter (release 2.4.3)
       H     2.77814    4.15871   -7.95189
       O     1.87552    4.45205   -7.89226
      H1     2.01275    5.39322   -7.69093
       H    -2.45764    1.15515   -6.56763
       O    -3.44257    1.16085   -6.64662
      H1    -3.63760    2.02611   -6.31151
       H    -0.50699    1.94558   -5.39766
       O    -0.83525    1.04553   -5.50719
      H1    -0.24142    0.68612   -6.15985
       H     0.75626   -1.95849   -7.16638
       O     0.55477   -1.04761   -7.39897
      H1     1.33092   -0.85432   -7.96350
       H     2.18948   -1.71291  -12.70349
       O     1.73580   -1.91520  -11.86419
      H1     0.83350   -1.91312  -12.18995
       H     1.47963    2.78066   -4.80623
       O     0.90325    3.20345   -5.47555
      H1     1.42789    3.22225   -6.29216
       H     4.83961    2.85262   -8.05253
       O     4.22161    3.42171   -8.56840
      H1     3.99435    2.89640   -9.33622
       H     5.10600   -1.55881   -9.49685
       O     5.30995   -2.49473   -9.43720
      H1     6.23264   -2.41368   -9.18638
       H     1.09239    2.84666   -8.47325
       O     0.39621    2.22266   -8.69703
      H1     0.03271    2.62152   -9.50060
       H     3.18137    2.32572  -11.55919
       O     3.14788    2.10244  -10.60528
      H1     2.40821    1.50757  -10.54068
       H    -4.39130    0.79024   -8.88990
       O    -4.09382    0.14795   -9.57695
      H1    -3.35851   -0.35309   -9.16627
       H     4.08896    0.46742   -9.70575
       O     5.00686    0.24712   -9.51805
      H1     5.43243    0.55477  -10.32040
       H    -0.76468   -1.01032  -12.20205
       O    -0.72251   -1.73228  -12.83164
      H1    -0.47721   -1.24728  -13.62773
       H     0.92555    0.61180   -9.50806
       O     1.67509   -0.03696   -9.64031
      H1     1.38867   -0.55091  -10.42324
       H    -3.28183    1.59708  -10.59375
       O    -2.46099    2.14354  -10.52038
      H1    -2.15626    2.13151  -11.44801
       H     1.55729   -3.17588  -10.23047
       O     1.42088   -4.11365  -10.03962
      H1     1.33151   -4.15952   -9.06568
       H    -1.44422    3.10859  -13.22527
       O    -1.39894    2.17011  -12.96835
      H1    -1.87948    1.66840  -13.63808
       H    -2.72924   -1.49008   -7.91353
       O    -1.99501   -1.37135   -8.58607
      H1    -1.19455   -1.33409   -7.99390
       H     1.58949    4.50216   -9.68713
       O     1.18702    4.62380  -10.56055
      H1     0.36722    5.11583  -10.42380
       H    -1.30611    0.79685  -10.64700
       O    -0.96905   -0.09820  -10.73037
      H1    -1.46128   -0.60093  -10.08813

