60
frame 0 | Written by MDAnalysis XYZWriter (release 2.4.3)
       H    -5.01980   -3.70446  -10.88101
       O    -4.72808   -4.28919  -10.12987
      H1    -4.31058   -3.66930   -9.44958
       H    -5.43881   -2.34457   -5.83510
       O    -5.73363   -2.49432   -6.73802
      H1    -5.34600   -1.86226   -7.32451
       H    -9.15269   -1.83774   -7.96269
       O    -8.82781   -2.76026   -8.21966
      H1    -7.97996   -2.69230   -8.71149
       H    -3.63377   -5.07606   -6.03795
       O    -4.32948   -5.24625   -6.67721
      H1    -4.54008   -6.18288   -6.77331
       H    -6.15849   -4.95790   -9.19229
       O    -6.91565   -5.44163   -8.72857
      H1    -7.00084   -5.20208   -7.82546
       H    -9.06085   -2.84291   -4.23210
       O    -8.39146   -2.52603   -4.85543
      H1    -8.40196   -3.21865   -5.56395
       H    -9.29873   -8.33197   -7.66298
       O    -9.53492   -8.08612   -6.77282
      H1   -10.03832   -8.88960   -6.47799
       H    -4.16926   -7.60624  -10.79920
       O    -4.54713   -8.37137  -10.40180
      H1    -5.51260   -8.22264  -10.55661
       H    -2.80731   -3.90213   -8.27500
       O    -3.38727   -3.12704   -8.23179
      H1    -4.00877   -3.29965   -7.54286
       H    -7.51961   -2.63964  -10.99816
       O    -7.34466   -1.95205  -10.38564
      H1    -7.64342   -1.12925  -10.77221
       H    -7.88193   -8.02076  -10.42423
       O    -7.45833   -7.79679   -9.57027
      H1    -7.54046   -6.85433   -9.41398
       H    -6.78797   -7.07460   -4.26520
       O    -5.83590   -6.99209   -4.47884
      H1    -5.72779   -7.24982   -5.42210
       H    -5.90971   -7.12022   -8.14139
       O    -5.42472   -7.54736   -7.44604
      H1    -5.30475   -8.41682   -7.81789
       H    -9.25120   -4.73379   -8.75309
       O   -10.10222   -5.15348   -8.97922
      H1    -9.94300   -5.79948   -9.64593
       H    -9.37678   -4.03062  -12.40226
       O    -8.76225   -4.21297  -11.65572
      H1    -9.39814   -4.42499  -10.98976
       H    -6.20404   -0.07762   -8.45962
       O    -5.48091   -0.60148   -8.90620
      H1    -6.00034   -1.15228   -9.49679
       H    -7.53685   -5.53894  -12.59076
       O    -7.38932   -6.21038  -13.29618
      H1    -8.21426   -6.24398  -13.77370
       H    -7.43104   -9.10098   -7.15558
       O    -7.06069   -9.97233   -7.24330
      H1    -7.64375  -10.38534   -7.89406
       H   -10.85423   -5.51903   -7.54225
       O   -11.28195   -5.72866   -6.68556
      H1   -10.90607   -6.57349   -6.58447
       H    -6.55376   -5.44486   -5.73345
       O    -7.28863   -4.84323   -5.99848
      H1    -6.81364   -3.99884   -6.05812

