60
frame 3 | Written by MDAnalysis XYZWriter (release 2.4.3)
       H   -11.42248   12.42965   -6.18579
       O   -12.33893   12.19240   -6.00228
      H1   -12.45439   12.22268   -5.04885
       H    -9.86075    7.83012   -8.46283
       O    -9.21728    8.37229   -7.97215
      H1    -8.99430    9.12886   -8.56748
       H   -14.33896    7.41700  -10.27047
       O   -13.71907    6.89867  -10.81897
      H1   -13.08868    7.55480  -11.21556
       H    -9.29427   11.35291  -12.20647
       O    -8.61962   11.06767  -11.58004
      H1    -8.74498   10.11030  -11.58854
       H   -15.76211   12.20379   -6.63510
       O   -16.59225   11.89345   -6.23285
      H1   -16.86132   11.13016   -6.76744
       H   -11.36899   10.76595   -9.98043
       O   -12.14744   11.16954   -9.57460
      H1   -12.52434   10.37047   -9.20013
       H   -15.64565    8.91523  -10.66665
       O   -15.59175    9.32067  -11.54727
      H1   -14.68448    9.13402  -11.82611
       H   -13.96239   10.19121   -7.11535
       O   -13.52273    9.50219   -7.60285
      H1   -12.80191    9.19489   -7.02080
       H   -13.78191   11.28001  -12.54998
       O   -13.73381   11.94524  -11.84062
      H1   -13.01605   11.59176  -11.31955
       H   -12.73849   13.60564  -11.15440
       O   -12.14075   14.35995  -11.04023
      H1   -11.60472   14.38738  -11.86032
       H   -12.09148    8.97830  -12.66857
       O   -11.81696    8.18160  -12.16702
      H1   -10.89055    8.35189  -11.93478
       H   -14.22151   13.74075   -7.07975
       O   -14.32043   12.84737   -7.43915
      H1   -13.50709   12.39659   -7.18202
       H   -10.61352    9.25140   -5.49822
       O   -11.12529    9.03485   -6.27130
      H1   -10.48442    9.06642   -7.00943
       H   -15.63870    7.25648   -8.60162
       O   -15.35687    8.12738   -8.97485
      H1   -14.68934    8.46139   -8.37690
       H   -15.17683   13.42800   -9.14626
       O   -15.67872   12.96572   -9.81468
      H1   -15.04624   12.25941  -10.09634
       H   -16.72305    9.08612   -8.09515
       O   -17.56628    9.42602   -7.74221
      H1   -18.25821    8.83220   -8.08015
       H    -8.50434   11.08954   -9.76342
       O    -8.96151   10.87013   -8.93458
      H1    -8.18621   10.86630   -8.34489
       H    -9.91901   12.09928   -7.88073
       O   -10.02977   12.93129   -7.44189
      H1   -10.80644   13.31351   -7.93086
       H   -11.92242    5.89815   -8.82787
       O   -11.60904    6.81135   -8.79739
      H1   -12.28719    7.29113   -9.27583
       H   -10.74196   12.60441  -13.08383
       O   -10.71645   11.64300  -13.07582
      H1   -10.46204   11.45909  -13.98866

