60
frame 3 | Written by MDAnalysis XYZWriter (release 2.4.3)
       H    -1.10252   15.71806   10.36315
       O    -1.69031   15.08280   10.82283
      H1    -2.51280   15.57526   10.92052
       H     3.29695   14.34706   14.62894
       O     3.03498   14.89556   15.39796
      H1     3.26420   14.34084   16.16199
       H     1.13828   15.37502   14.93527
       O     0.66737   15.65346   14.15107
      H1     0.33855   16.56466   14.36190
       H     1.03662   15.21490    9.94209
       O     0.97851   15.53900   10.83407
      H1     0.37374   14.89675   11.27496
       H    -4.04930   14.98844   14.21226
       O    -3.51757   14.20830   14.37645
      H1    -2.84816   14.28784   13.69267
       H     3.28121   16.70294   15.90548
       O     3.24153   17.60273   16.25253
      H1     3.33091   18.17626   15.48211
       H    -2.70762   17.97429   13.48993
       O    -2.59227   17.80779   12.52322
      H1    -1.63821   17.61180   12.46426
       H     1.77796   13.45327   17.67962
       O     2.60101   13.83924   17.95672
      H1     2.29060   14.73321   18.23251
       H    -1.08696   13.95016   12.24859
       O    -1.17369   13.87046   13.19567
      H1    -0.55616   14.51299   13.60164
       H     2.21385   17.04197   18.19441
       O     2.00180   16.33005   18.79532
      H1     1.05564   16.20078   18.63722
       H     2.89278   14.88974   10.76953
       O     3.50248   14.29281   10.34027
      H1     4.28231   14.21295   10.92565
       H     0.05924   11.81668   16.62276
       O     0.30544   12.61682   17.07542
      H1     0.34610   12.38096   18.00499
       H    -1.60662   18.20700   15.61131
       O    -0.73370   18.21822   15.27868
      H1    -0.36321   18.92975   15.83525
       H    -1.52313   13.48131   16.89158
       O    -2.14050   14.21176   16.82199
      H1    -2.67392   13.96144   16.08423
       H     1.23441   11.83708   12.36604
       O     1.23030   11.46052   13.27172
      H1     0.36560   11.75389   13.65795
       H     3.65357   12.83724   12.69537
       O     3.59452   12.74740   13.65874
      H1     2.66207   12.49600   13.75651
       H    -2.33028   11.31629   14.47524
       O    -1.46581   11.70594   14.75986
      H1    -1.42833   12.52984   14.24194
       H     0.53286   18.47955   11.96782
       O    -0.03238   17.94812   11.40885
      H1     0.57800   17.21196   11.19922
       H    -0.34299   16.88908   16.66333
       O    -0.47718   16.22169   17.32710
      H1    -1.06490   15.63168   16.89755
       H     5.46523   15.98517   15.36128
       O     6.31432   15.70472   15.66306
      H1     6.51103   14.93213   15.10777

