60
frame 3 | Written by MDAnalysis XYZWriter (release 2.4.3)
       H   -10.83833    0.10921   10.34136
       O   -10.98151    0.64841   11.13668
      H1   -11.59442    0.15912   11.71139
       H   -12.79449   -5.97426   15.73170
       O   -12.91771   -5.34691   15.01922
      H1   -13.80661   -5.64765   14.67702
       H   -12.66373   -1.21444   15.59477
       O   -11.77216   -1.08774   15.26528
      H1   -11.46016   -1.98563   15.29273
       H   -13.73725    1.38431   17.00655
       O   -13.05030    0.91729   17.52744
      H1   -12.25801    1.28029   17.11181
       H   -13.90363   -4.02767   17.35913
       O   -14.80322   -3.78146   17.65423
      H1   -15.37234   -4.43633   17.29632
       H   -14.47098   -2.12520   13.26418
       O   -14.47697   -2.28801   12.31564
      H1   -14.39938   -3.26500   12.27149
       H   -14.31049    0.51762   13.49955
       O   -15.12046    0.83401   13.93777
      H1   -15.74495    0.71841   13.23089
       H   -10.95562    1.40604   15.99039
       O   -10.51596    1.52559   16.83059
      H1    -9.88231    0.76683   16.80303
       H   -13.32251   -1.00060   12.45567
       O   -12.84735   -0.25654   12.86519
      H1   -12.53280   -0.59523   13.71320
       H    -9.22522   -0.32218   14.04301
       O    -9.07063   -1.22199   13.74707
      H1    -8.97015   -1.14970   12.79382
       H   -12.46216   -1.04332   17.92674
       O   -12.19291   -1.81762   18.43295
      H1   -12.95663   -2.02746   18.98883
       H   -12.39830    2.31216   13.36039
       O   -11.86388    2.13828   14.15690
      H1   -10.96773    1.99144   13.85604
       H    -7.47911   -0.23993   17.81625
       O    -8.25636    0.19534   17.40927
      H1    -7.88975    0.48769   16.56624
       H    -8.72987    1.93485   14.36589
       O    -8.35498    1.21784   14.93680
      H1    -7.48681    1.04965   14.54321
       H   -12.67963    3.53465   15.31994
       O   -12.98096    4.20344   15.97454
      H1   -12.16457    4.20108   16.52398
       H   -14.50291   -0.94583   16.96928
       O   -14.55970   -1.42544   16.13894
      H1   -14.83599   -2.26998   16.49960
       H   -10.19844   -2.67080   14.05725
       O   -10.50830   -3.45759   14.55534
      H1   -10.91216   -4.02789   13.85753
       H   -10.99837   -3.99318   16.58129
       O   -11.15423   -4.13571   17.49291
      H1   -11.35614   -3.26409   17.90870
       H    -8.28272   -1.91774   16.43137
       O    -8.10381   -2.84964   16.24425
      H1    -8.80153   -3.09717   15.65424
       H   -15.20462    1.54230   15.62815
       O   -15.30493    2.00154   16.47466
      H1   -16.07066    1.58269   16.89968

