60
frame 3 | Written by MDAnalysis XYZWriter (release 2.4.3)
       H    -6.56534   -3.06426   14.97708
       O    -5.69736   -3.33183   14.61140
      H1    -5.97234   -4.01198   14.01157
       H   -10.02230   -3.12526   11.29991
       O    -9.09060   -2.84654   11.43281
      H1    -8.64046   -3.62057   11.72945
       H    -9.22522   -0.32218   14.04301
       O    -9.07063   -1.22199   13.74707
      H1    -8.97015   -1.14970   12.79382
       H    -8.07397   -5.60093   17.93129
       O    -8.81486   -5.48941   18.53686
      H1    -9.24453   -4.69755   18.18802
       H    -7.30001   -5.06075   11.54713
       O    -7.66070   -4.87788   12.43230
      H1    -8.47135   -5.39663   12.49477
       H    -7.47911   -0.23993   17.81625
       O    -8.25636    0.19534   17.40927
      H1    -7.88975    0.48769   16.56624
       H    -6.87356   -5.78446   15.45950
       O    -6.48263   -6.22507   14.71661
      H1    -6.95173   -5.92435   13.94062
       H    -5.94183   -2.88943   10.62749
       O    -5.45740   -2.06875   10.57878
      H1    -4.83597   -2.11612   11.31515
       H    -8.72987    1.93485   14.36589
       O    -8.35498    1.21784   14.93680
      H1    -7.48681    1.04965   14.54321
       H    -5.61016   -1.36866   18.32630
       O    -5.67587   -0.49878   17.82207
      H1    -5.20572    0.08604   18.42579
       H    -5.73958   -0.41467   11.39168
       O    -5.68961    0.52732   11.52987
      H1    -5.13667    0.81315   10.81200
       H    -5.53837    0.34646   13.40301
       O    -5.85957    0.55210   14.28582
      H1    -5.40141   -0.07411   14.86699
       H    -5.95556   -4.70436   17.47456
       O    -6.40045   -5.57646   17.47130
      H1    -5.87234   -6.09351   18.11926
       H   -10.19844   -2.67080   14.05725
       O   -10.50830   -3.45759   14.55534
      H1   -10.91216   -4.02789   13.85753
       H    -7.56663   -2.75712   18.05001
       O    -7.61158   -2.34112   18.91635
      H1    -6.80129   -2.59500   19.36830
       H    -4.23262   -3.04348   17.97336
       O    -4.95166   -3.31071   17.38812
      H1    -4.91789   -2.72784   16.63263
       H    -3.18708   -0.65033   15.83857
       O    -4.07753   -0.96915   15.85585
      H1    -4.49826   -0.48396   16.55849
       H    -4.11505   -2.43683   13.60067
       O    -3.64139   -2.08142   12.83190
      H1    -2.85638   -2.65305   12.90715
       H    -8.28272   -1.91774   16.43137
       O    -8.10381   -2.84964   16.24425
      H1    -8.80153   -3.09717   15.65424
       H    -4.10842   -4.66935   15.73994
       O    -3.66030   -5.31210   15.21346
      H1    -4.36269   -5.70663   14.67163

