60
frame 0 | Written by MDAnalysis XYZWriter (release 2.4.3)
       H    -9.43762  -10.00529    2.42910
       O    -9.57818  -10.78792    2.95279
      H1    -8.69465  -11.16088    3.01981
       H    -6.31820  -12.81846   -2.92022
       O    -6.94798  -13.07644   -3.64838
      H1    -7.28873  -13.92269   -3.35845
       H    -9.51822  -14.17985   -4.23187
       O    -9.63927  -14.24635   -3.27720
      H1   -10.02413  -15.09784   -3.12030
       H    -7.35871   -8.12286   -1.33586
       O    -7.53318   -7.76156   -0.46100
      H1    -7.34951   -6.81144   -0.53868
       H   -12.05643  -11.63784    1.39969
       O   -12.80637  -11.05593    1.19679
      H1   -13.50251  -11.34729    1.79617
       H   -10.45542  -12.27809    2.13190
       O   -10.91792  -12.93786    1.56438
      H1   -10.39682  -13.08723    0.78524
       H    -9.76417   -9.65184   -2.36712
       O    -9.62974   -9.72069   -1.39373
      H1    -9.39673  -10.65513   -1.30389
       H   -12.87533   -7.90417    1.96100
       O   -12.02203   -8.30518    1.82312
      H1   -12.26645   -9.23762    1.62052
       H    -9.47743   -7.17349   -1.13536
       O   -10.24719   -6.63825   -1.33450
      H1   -11.03353   -7.21358   -1.27501
       H   -13.03615  -12.65165    0.19622
       O   -13.04042  -13.34197   -0.47119
      H1   -13.86429  -13.18752   -0.94998
       H   -13.08285  -11.46433   -2.70452
       O   -13.67340  -10.83410   -2.28531
      H1   -13.07962  -10.05402   -2.18130
       H   -10.93469  -13.13186   -2.86323
       O   -11.24003  -12.31611   -2.43722
      H1   -11.89650  -12.62478   -1.82016
       H   -11.45666   -9.08548   -4.56012
       O   -10.84583   -9.56022   -3.98478
      H1   -11.01363  -10.50268   -4.20572
       H   -11.34172   -8.82710   -1.05928
       O   -12.20524   -8.42838   -1.00356
      H1   -12.39153   -8.37221   -0.04842
       H    -5.23674  -11.51194    2.11603
       O    -5.79893  -12.27465    1.96936
      H1    -6.35990  -12.02139    1.23011
       H    -8.59319   -8.52413    0.89649
       O    -9.12433   -8.39421    1.65885
      H1    -9.87055   -7.80788    1.45026
       H    -7.48468   -9.77666   -3.33035
       O    -7.23845   -8.91834   -2.93810
      H1    -6.45927   -8.70979   -3.46942
       H    -8.04264   -7.97803   -4.65174
       O    -8.60017   -8.08790   -5.42592
      H1    -9.18489   -8.80811   -5.19656
       H    -6.18774  -11.07379   -1.14858
       O    -6.73217  -11.41143   -0.42066
      H1    -7.49709  -11.69858   -0.94937
       H    -8.57718  -13.37959   -1.08323
       O    -9.09977  -12.62374   -0.83457
      H1    -9.91336  -12.66085   -1.36763

