60
frame 3 | Written by MDAnalysis XYZWriter (release 2.4.3)
       H   -14.48972  -15.91390    9.41933
       O   -14.68988  -14.98995    9.33523
      H1   -15.59374  -14.91532    9.66222
       H   -18.70659   -7.16668    6.18202
       O   -18.57078   -6.91396    5.26186
      H1   -17.72771   -6.39701    5.22729
       H   -14.03809  -12.78010    4.21594
       O   -13.89495  -13.07219    3.30054
      H1   -13.09351  -13.62557    3.36471
       H   -17.71709  -12.32671   10.25352
       O   -18.23753  -12.43616    9.45016
      H1   -17.71499  -13.03754    8.91843
       H   -13.63512  -16.50046    6.62141
       O   -13.88428  -15.59705    6.84870
      H1   -14.14863  -15.66641    7.75182
       H   -16.53678   -8.41834    7.51137
       O   -16.89719   -8.04682    8.32284
      H1   -16.74163   -8.67458    9.04798
       H   -18.72931  -14.61273    7.24111
       O   -17.82829  -14.27339    7.34574
      H1   -17.35811  -14.59810    6.54367
       H   -15.50920  -11.78125    5.48085
       O   -14.56212  -11.98959    5.69687
      H1   -14.55424  -12.11167    6.63020
       H   -18.02729  -11.92434    5.20696
       O   -17.23472  -12.09496    5.74681
      H1   -17.52303  -12.80430    6.34365
       H   -14.06198   -9.70846    7.39168
       O   -13.80391   -8.90685    6.88718
      H1   -13.56476   -8.28792    7.52247
       H   -17.69277   -8.49640    1.82030
       O   -16.89663   -8.36580    2.35052
      H1   -17.16264   -8.48692    3.28763
       H   -13.22472  -10.84845    8.63021
       O   -14.13944  -10.79894    8.82800
      H1   -14.26466  -11.49710    9.48910
       H   -15.84621  -14.33674    4.72511
       O   -16.23638  -15.10221    5.15852
      H1   -15.49953  -15.39682    5.68067
       H   -18.19686  -11.69808    3.18140
       O   -18.98721  -11.70261    3.76280
      H1   -19.21582  -10.74432    3.73166
       H   -18.18555  -17.30901    3.72933
       O   -18.15583  -16.40129    3.45324
      H1   -17.46240  -16.05396    4.03790
       H   -15.80553  -11.62277    2.98390
       O   -16.54071  -11.98238    2.43352
      H1   -16.74752  -11.21704    1.87123
       H   -15.10804   -9.39758    3.50591
       O   -14.46348   -9.92512    3.08666
      H1   -13.69046  -10.01794    3.68657
       H   -15.32263   -8.91217    5.56852
       O   -16.13762   -8.96307    5.05502
      H1   -16.50428   -9.78965    5.30652
       H   -11.41112  -10.45546    4.78132
       O   -12.14821   -9.84925    4.75507
      H1   -12.57230   -9.83632    5.62299
       H   -17.29655  -13.64322    0.23893
       O   -16.39999  -13.84970    0.51257
      H1   -16.24952  -13.36179    1.34946

