60
frame 0 | Written by MDAnalysis XYZWriter (release 2.4.3)
       H     3.23599   -2.90999   12.08350
       O     3.46461   -3.46203   12.86255
      H1     2.60153   -3.87455   13.10779
       H    -0.41895   -1.13328   17.86286
       O     0.46306   -1.02273   18.21892
      H1     1.07288   -1.48657   17.60977
       H     0.26249   -0.73342   13.96960
       O     0.40834    0.21791   13.85257
      H1     0.34435    0.43426   14.81782
       H     3.92051   -3.62836   16.06121
       O     4.64842   -3.23642   15.56056
      H1     4.22424   -3.31168   14.69187
       H    -1.00676    2.32212   17.16499
       O    -1.00234    3.08200   17.84775
      H1    -1.68717    2.79278   18.51509
       H    -0.84714   -2.95568   13.07179
       O    -0.94879   -2.18532   13.70847
      H1    -1.77066   -2.38137   14.14303
       H     3.29543    0.08551   15.20372
       O     2.75476   -0.04646   16.00127
      H1     3.22149    0.22276   16.78020
       H     1.30436    0.88404   16.23801
       O     0.34233    1.13291   16.31898
      H1     0.10089    0.46265   16.97911
       H     4.23631    0.16819   18.63819
       O     3.99743    1.04460   18.27196
      H1     4.32110    1.67871   18.95651
       H    -1.74889   -5.67566   18.73732
       O    -2.63061   -5.51162   19.00951
      H1    -2.54067   -5.05080   19.83604
       H     0.93390    3.12370   18.32889
       O     1.78525    3.39721   18.62187
      H1     2.34479    2.69631   18.27028
       H    -2.98160   -3.68997   16.19904
       O    -2.26814   -3.06732   16.02950
      H1    -2.30932   -2.33727   16.71900
       H    -1.16402   -4.18930   16.79865
       O    -0.48584   -4.78333   17.17314
      H1    -0.23928   -5.23514   16.34154
       H     0.59718   -4.22936   18.27321
       O     0.96839   -3.70720   19.03694
      H1     0.76735   -2.82698   18.70910
       H     7.00227   -1.33912   16.73618
       O     6.08211   -1.09545   16.96032
      H1     5.59900   -1.51538   16.27288
       H     2.67583   -4.19324   17.90652
       O     3.54549   -4.57198   17.96833
      H1     4.12865   -3.91202   18.33474
       H    -2.71193   -0.91930   18.43801
       O    -2.44409   -0.91048   17.46230
      H1    -3.28436   -0.74449   16.99612
       H     4.58052    1.46161   14.11782
       O     4.22554    0.63292   13.66334
      H1     3.46639    0.83807   13.07218
       H     0.56446   -2.49939   14.62183
       O     1.25799   -2.87099   15.18966
      H1     1.99360   -2.25568   15.09998
       H     5.19873   -2.71804   19.42516
       O     5.74503   -3.25093   18.88020
      H1     5.99547   -2.60347   18.20220

