60
frame 3 | Written by MDAnalysis XYZWriter (release 2.4.3)
       H    15.37621   16.26347  -10.20780
       O    15.90273   15.65681  -10.77444
      H1    15.43468   14.82081  -10.77756
       H    14.65405   18.58144  -13.31366
       O    13.82967   18.93816  -13.61528
      H1    13.61573   18.34701  -14.36411
       H    14.45053   12.41912  -11.66931
       O    15.14273   13.08309  -11.60383
      H1    15.00419   13.61671  -12.41693
       H     9.71092   16.45392  -14.91113
       O    10.17657   17.02995  -15.52054
      H1     9.88193   16.74491  -16.39465
       H     9.63748   15.65924  -10.38088
       O    10.06318   15.37127  -11.19354
      H1    11.00349   15.26672  -10.92184
       H    17.15011   19.08006   -9.39096
       O    16.63489   18.87722  -10.18449
      H1    17.24387   18.39813  -10.75593
       H    15.59631   16.45827  -15.58709
       O    16.18309   17.22053  -15.59884
      H1    17.07423   16.85924  -15.74174
       H    12.12945   16.66859  -14.99948
       O    13.09811   16.74144  -15.06578
      H1    13.26896   16.66132  -15.99067
       H     8.34822   15.48791  -13.81892
       O     9.23887   15.17360  -13.80981
      H1     9.34007   14.82227  -12.92144
       H    17.60175   12.69839  -15.06012
       O    17.67356   13.54626  -14.58313
      H1    16.75412   13.67396  -14.34491
       H    13.54574   17.89416   -9.48221
       O    14.35888   17.45164   -9.67851
      H1    14.97877   18.19917   -9.80935
       H    12.38852   12.45869  -10.21072
       O    12.67017   12.40942  -11.13534
      H1    13.11571   13.25264  -11.21242
       H    11.45798   18.58441  -19.12123
       O    12.06293   18.27623  -18.42117
      H1    11.59767   18.60757  -17.63685
       H     9.45539   17.17920  -11.59832
       O     9.71724   18.08591  -11.37940
      H1     8.96809   18.60583  -11.67891
       H    12.96809   16.84205  -17.92732
       O    13.80800   16.58766  -17.54264
      H1    14.34620   17.37867  -17.65237
       H    15.27096   13.94673  -19.06289
       O    14.60630   13.91351  -18.37195
      H1    14.64696   14.79460  -17.98444
       H    12.87045   15.55888   -9.89144
       O    12.94057   15.17453  -10.78089
      H1    13.58815   15.67107  -11.29839
       H    16.53800   17.44058  -13.85421
       O    16.31019   17.47018  -12.92397
      H1    16.20050   16.52360  -12.66384
       H    13.00836   18.99712   -8.29899
       O    12.17411   18.66103   -8.64960
      H1    11.68123   18.41379   -7.84227
       H    14.61398   14.30254  -14.53474
       O    14.80039   14.75684  -13.66818
      H1    14.34759   15.57946  -13.72919

