60
frame 3 | Written by MDAnalysis XYZWriter (release 2.4.3)
       H     4.59540   -0.99258  -16.94175
       O     3.79481   -0.44323  -16.97672
      H1     3.10761   -1.06996  -17.30578
       H     4.02481    2.63291  -14.05381
       O     3.91101    2.70775  -13.11133
      H1     4.65842    3.25739  -12.83048
       H     3.40858   -3.20176  -13.07332
       O     3.07386   -3.07972  -13.96698
      H1     3.88484   -2.78315  -14.44202
       H     7.24163   -0.97153  -17.18575
       O     6.35282   -1.33209  -17.25132
      H1     6.41050   -2.16418  -16.73986
       H     7.29438    1.38527  -16.39043
       O     7.04396    2.26628  -16.61237
      H1     6.78716    2.27750  -17.55395
       H     2.18948   -1.71291  -12.70349
       O     1.73580   -1.91520  -11.86419
      H1     0.83350   -1.91312  -12.18995
       H     3.47229   -4.09106  -10.91002
       O     4.19262   -3.89674  -11.51011
      H1     4.73460   -3.39076  -10.87115
       H     8.54001   -2.02983  -12.24590
       O     8.32331   -2.52628  -13.03568
      H1     9.17960   -2.74583  -13.40864
       H     6.91509    0.40935  -12.62482
       O     6.66466    0.72891  -11.75023
      H1     6.80515    1.68074  -11.88974
       H     5.73488   -3.94383  -14.53265
       O     5.40056   -3.48472  -15.29941
      H1     5.71816   -4.06655  -15.95907
       H     7.53858   -1.15759  -13.80271
       O     7.43738   -0.34453  -14.34148
      H1     6.50289   -0.12963  -14.22553
       H     5.10600   -1.55881   -9.49685
       O     5.30995   -2.49473   -9.43720
      H1     6.23264   -2.41368   -9.18638
       H     3.18137    2.32572  -11.55919
       O     3.14788    2.10244  -10.60528
      H1     2.40821    1.50757  -10.54068
       H     4.08896    0.46742   -9.70575
       O     5.00686    0.24712   -9.51805
      H1     5.43243    0.55477  -10.32040
       H     5.24695    2.27817  -16.39598
       O     4.40965    2.60866  -16.06822
      H1     3.77425    1.95251  -16.41302
       H     8.85130   -1.67795  -16.22015
       O     8.66019   -2.61391  -15.95229
      H1     8.00017   -2.45744  -15.23884
       H     2.92047   -0.44929  -15.27456
       O     2.44623   -0.09621  -14.50820
      H1     1.79055    0.52699  -14.83778
       H     8.33246   -0.49668  -10.87514
       O     8.99597   -1.06560  -10.50345
      H1     9.84173   -0.76808  -10.83906
       H     7.25550   -4.00015  -12.95503
       O     6.52578   -4.61424  -13.10651
      H1     5.93044   -4.55590  -12.33433
       H     5.08850    0.10130  -12.67756
       O     4.93729   -0.37082  -13.52140
      H1     4.08701    0.04915  -13.83348

