60
frame 3 | Written by MDAnalysis XYZWriter (release 2.4.3)
       H    13.89690  -11.74775    6.29243
       O    13.74124  -11.98159    7.19900
      H1    13.95418  -12.91240    7.20371
       H    14.19847  -11.96312    0.86984
       O    14.99755  -11.84336    0.35565
      H1    15.65856  -12.40133    0.80104
       H    18.43837   -7.65066    0.73877
       O    19.00942   -8.42584    0.60486
      H1    19.40618   -8.11889   -0.22171
       H    13.73579   -8.17861    5.03905
       O    14.34045   -8.68005    5.58057
      H1    14.08789   -9.59766    5.40882
       H    14.73366   -3.36767    5.51171
       O    14.14178   -3.93548    5.01820
      H1    14.72884   -4.67259    4.74772
       H    12.17193   -6.32053    3.20289
       O    12.15040   -7.26804    3.40280
      H1    11.71035   -7.24373    4.25265
       H    12.22568   -8.46005    1.52835
       O    11.69148   -8.36439    0.75349
      H1    10.94690   -7.89347    1.08902
       H    16.62242  -10.55646    0.03633
       O    17.48830  -10.47818   -0.40661
      H1    17.87788   -9.66278   -0.08550
       H    18.95502   -8.29380    4.31441
       O    18.69223   -8.99134    3.70759
      H1    17.72051   -8.97420    3.68228
       H    15.63442   -6.91453    3.41513
       O    15.48503   -6.02288    3.69816
      H1    15.21426   -5.53454    2.90207
       H    19.04011   -5.61040    3.68147
       O    18.25920   -5.01189    3.54205
      H1    17.43915   -5.55443    3.59191
       H    15.40927   -8.99017    2.83576
       O    15.97224   -8.53971    3.47225
      H1    15.51726   -8.67688    4.31547
       H    18.60221   -5.19458    0.23192
       O    18.42544   -5.76014    0.98306
      H1    18.51875   -5.28170    1.80527
       H    11.74311  -10.40408    1.25407
       O    12.24158  -11.22062    1.09191
      H1    11.70587  -11.88917    1.53955
       H    14.19910   -8.89121    1.09362
       O    13.98004   -9.50692    1.81884
      H1    13.59142  -10.18325    1.24904
       H    14.29925   -7.95548   -1.06333
       O    15.09032   -7.74919   -0.51295
      H1    15.06402   -6.78604   -0.36358
       H    17.64258  -12.44358    2.68939
       O    17.11979  -12.91836    2.00849
      H1    16.91984  -13.74915    2.46166
       H    15.32446   -4.83454    0.45185
       O    15.67976   -5.12895   -0.42319
      H1    16.61201   -5.00752   -0.38913
       H    15.19466  -11.16796   -1.32562
       O    14.81258  -10.84015   -2.16496
      H1    15.00573  -11.57963   -2.72707
       H    13.14057  -10.91856    3.95198
       O    13.74021  -11.18180    4.63765
      H1    13.91154  -12.10921    4.47229

