60
frame 7 | Written by MDAnalysis XYZWriter (release 2.4.3)
       H     9.64421   -7.02634  -16.31557
       O     9.79354   -7.50743  -17.14489
      H1     9.43189   -6.99189  -17.87338
       H     4.05249  -11.29174  -15.09324
       O     3.73149  -11.36167  -16.03119
      H1     2.86405  -11.76067  -15.96811
       H     3.54143   -3.87758  -18.80961
       O     4.20507   -4.50829  -18.56581
      H1     4.53090   -4.94830  -19.36531
       H     4.80230   -5.86986  -16.94502
       O     5.51150   -6.04723  -16.33411
      H1     6.22123   -5.65679  -16.82527
       H     9.31341  -10.11113  -14.01814
       O     9.77565   -9.75841  -14.82074
      H1     9.14156   -9.26274  -15.29218
       H     3.71431   -9.47683  -16.36997
       O     3.31119   -8.62341  -16.46283
      H1     3.26806   -8.34052  -15.52176
       H     0.07721   -7.04977  -13.29502
       O     0.86567   -6.47963  -13.21869
      H1     1.51901   -6.90205  -13.81109
       H     6.32195   -8.51039  -14.40106
       O     6.52127   -8.48623  -15.36752
      H1     6.14449   -7.62751  -15.70641
       H     4.79070   -8.44536  -17.97665
       O     5.14142   -8.43619  -18.90300
      H1     6.15167   -8.41537  -18.81625
       H     3.60305  -12.49579  -18.89189
       O     4.35002  -12.78414  -18.33627
      H1     4.24755  -12.33141  -17.49895
       H     1.64555  -11.87147  -17.84777
       O     1.86637  -11.73728  -18.82560
      H1     2.11528  -10.79308  -18.88051
       H     5.52912  -10.44468  -13.26670
       O     4.89774  -11.13340  -13.41944
      H1     3.99250  -10.91665  -13.12800
       H     7.19721   -8.93455  -17.19278
       O     7.75380   -9.04469  -18.00740
      H1     8.55701   -8.57631  -17.77777
       H     0.55225   -6.93282  -19.74310
       O     0.22819   -7.80571  -19.43324
      H1     1.02309   -8.42099  -19.44460
       H     3.40308   -6.63749  -12.93573
       O     3.66373   -7.36068  -13.52582
      H1     4.11543   -7.92104  -12.94281
       H     4.42462   -3.68741  -13.81686
       O     5.17730   -4.30292  -14.03298
      H1     4.91692   -4.83396  -14.81259
       H     7.13070  -10.90635  -18.49121
       O     6.89311  -11.72935  -18.87296
      H1     5.94096  -11.84018  -18.83643
       H     1.53047   -7.54616  -16.57202
       O     0.89164   -7.15351  -15.96062
      H1     0.99553   -6.19957  -15.94115
       H     0.70627   -9.95471  -14.84724
       O     0.32114   -9.31915  -14.25259
      H1     0.38244   -8.48756  -14.79852
       H     8.13395   -4.42477  -17.31900
       O     7.55559   -4.94162  -17.89089
      H1     7.05183   -4.27153  -18.42582

