60
frame 0 | Written by MDAnalysis XYZWriter (release 2.4.3)
       H    12.64257  -13.68153  -11.11742
       O    13.30798  -13.85295  -10.41938
      H1    14.11580  -13.60196  -10.89886
       H    11.02454  -11.65465  -18.51376
       O    10.20553  -11.20787  -18.26634
      H1    10.42762  -10.68152  -17.52561
       H    10.62827   -9.02398  -10.18400
       O    11.42778   -9.40507  -10.54473
      H1    11.48448   -9.00447  -11.37805
       H     9.22084  -12.68883  -18.37963
       O     8.51570  -13.34064  -18.37064
      H1     8.20721  -13.36364  -19.28426
       H    12.17583  -14.02149  -18.54021
       O    11.95863  -14.94662  -18.46239
      H1    11.17979  -14.91109  -17.97089
       H    11.49993   -9.38642  -15.51433
       O    11.06277   -8.52238  -15.55725
      H1    11.70376   -7.96495  -16.00489
       H    14.47394   -8.87260  -18.16776
       O    13.69717   -8.56091  -17.70832
      H1    12.94594   -8.84397  -18.23929
       H    14.59040  -13.53016  -14.61849
       O    14.45824  -14.09045  -13.85957
      H1    15.31551  -14.52881  -13.76903
       H     8.79181  -13.12435  -15.51759
       O     7.98307  -12.70342  -15.16809
      H1     7.24910  -13.15197  -15.61627
       H    11.54837   -8.31779  -13.94579
       O    11.57510   -8.08650  -13.02191
      H1    10.93376   -7.36247  -12.93932
       H    12.34092  -16.56123  -14.48657
       O    12.22439  -15.68946  -14.89350
      H1    12.94079  -15.16804  -14.55131
       H    11.02164  -14.10859  -16.10162
       O    10.59135  -13.28857  -16.29039
      H1    11.27593  -12.63252  -16.19858
       H    10.45651  -12.97396  -11.86059
       O    11.20547  -12.66113  -11.34879
      H1    11.42525  -11.86576  -11.85590
       H     8.94298  -14.77812  -13.05974
       O     8.85442  -13.99714  -12.54432
      H1     8.94833  -13.28763  -13.17619
       H    14.38520   -9.04051  -15.66836
       O    14.19977   -9.12631  -14.73670
      H1    14.72503   -8.45251  -14.30692
       H     9.62622  -10.79749  -13.33095
       O    10.08352  -11.58373  -13.64567
      H1     9.45186  -11.83985  -14.35969
       H    13.07535  -11.27913  -15.49850
       O    12.15430  -11.02291  -15.62099
      H1    11.70759  -11.33295  -14.80897
       H     8.18569   -9.50117  -15.50263
       O     8.12254  -10.20133  -16.15219
      H1     7.96953  -11.03261  -15.66188
       H     9.26358   -8.10768  -14.40282
       O     8.65466   -8.51801  -13.78006
      H1     8.34497   -7.77391  -13.24927
       H    15.58555  -11.94383  -15.95475
       O    14.76510  -11.90101  -15.43513
      H1    14.73801  -10.96385  -15.19889

