60
frame 3 | Written by MDAnalysis XYZWriter (release 2.4.3)
       H    -7.69729   -0.62212  -12.68575
       O    -7.72956    0.27876  -13.06690
      H1    -8.68327    0.41004  -13.03965
       H    -7.83853   -2.92197  -12.21325
       O    -7.53010   -2.14341  -11.70247
      H1    -6.65415   -2.39678  -11.37831
       H    -2.78690   -4.00476  -15.26864
       O    -2.91462   -3.15819  -15.71841
      H1    -2.16045   -3.15763  -16.32310
       H    -4.10940   -5.59174  -12.17283
       O    -4.15593   -6.31940  -11.53783
      H1    -3.38397   -6.83677  -11.81691
       H    -7.10685    1.54094  -12.11942
       O    -6.67209    2.17898  -11.53259
      H1    -7.02801    1.97487  -10.66050
       H    -5.46897   -0.83472   -8.66878
       O    -5.76470   -1.46945   -7.98331
      H1    -6.70426   -1.48691   -8.08519
       H    -6.49707   -1.19698  -16.22125
       O    -6.94867   -1.33385  -15.38433
      H1    -6.90938   -0.46948  -14.95520
       H    -5.15260    0.90621  -12.32292
       O    -4.23410    0.80514  -12.59006
      H1    -4.15769   -0.13647  -12.74659
       H    -3.91264   -5.63333  -14.47160
       O    -4.34030   -4.97465  -13.91348
      H1    -5.12926   -4.80164  -14.42351
       H    -4.53909   -1.13290  -10.78174
       O    -4.87104   -2.03428  -11.05250
      H1    -4.28615   -2.24983  -11.80435
       H    -4.39130    0.79024   -8.88990
       O    -4.09382    0.14795   -9.57695
      H1    -3.35851   -0.35309   -9.16627
       H    -8.25535   -0.95596  -10.28666
       O    -8.68760   -0.63549   -9.50794
      H1    -8.26516    0.20790   -9.32284
       H    -0.76468   -1.01032  -12.20205
       O    -0.72251   -1.73228  -12.83164
      H1    -0.47721   -1.24728  -13.62773
       H    -4.91974   -3.52648   -9.89305
       O    -5.12694   -4.45113   -9.67280
      H1    -4.83359   -4.94242  -10.44538
       H    -2.66749   -1.91194  -13.29403
       O    -3.60547   -1.75314  -13.41693
      H1    -3.75960   -2.33574  -14.19664
       H    -3.28183    1.59708  -10.59375
       O    -2.46099    2.14354  -10.52038
      H1    -2.15626    2.13151  -11.44801
       H    -6.98693   -3.36936  -15.11450
       O    -7.23746   -4.24335  -14.77796
      H1    -7.15505   -4.79128  -15.58149
       H    -2.72924   -1.49008   -7.91353
       O    -1.99501   -1.37135   -8.58607
      H1    -1.19455   -1.33409   -7.99390
       H    -3.84568   -1.06443  -15.58638
       O    -3.81967   -0.55562  -16.40397
      H1    -3.95094    0.34537  -16.05826
       H    -1.30611    0.79685  -10.64700
       O    -0.96905   -0.09820  -10.73037
      H1    -1.46128   -0.60093  -10.08813

