60
frame 0 | Written by MDAnalysis XYZWriter (release 2.4.3)
       H   -13.03673    5.27214  -13.63854
       O   -12.52096    4.56156  -13.26341
      H1   -11.58722    4.77898  -13.49170
       H   -13.18958    5.43162   -6.82770
       O   -12.90984    5.90350   -6.02426
      H1   -12.31064    5.31080   -5.55968
       H   -11.18181    6.91755  -10.17136
       O   -11.30149    6.51432  -11.03668
      H1   -10.62996    6.94129  -11.57174
       H   -13.19818    1.23481   -8.81223
       O   -14.02805    1.04937   -9.27982
      H1   -13.95252    1.47390  -10.16723
       H    -9.89951    0.62877  -10.17240
       O    -9.40106    1.43682  -10.31095
      H1    -9.19317    1.36914  -11.24930
       H   -11.31643    4.89476  -10.57947
       O   -10.92679    4.14155  -10.10383
      H1   -11.69524    3.72964   -9.67937
       H   -13.06303    6.77218  -12.24588
       O   -13.87399    6.83012  -12.73893
      H1   -14.20999    7.72449  -12.56645
       H   -10.10852    4.99090   -7.90351
       O   -10.06025    4.11303   -7.47949
      H1   -10.50240    3.57801   -8.14337
       H   -14.71857    5.84046  -11.52950
       O   -14.76524    5.33341  -10.70234
      H1   -15.73003    5.19489  -10.56025
       H   -12.18597    1.98471   -7.19176
       O   -11.76326    1.79783   -8.02927
      H1   -11.34155    0.94454   -7.87087
       H    -9.07941    5.39071   -9.95520
       O    -8.07881    5.35734   -9.89616
      H1    -7.91087    5.64988   -8.98570
       H    -9.44195   -0.44871   -8.63790
       O    -9.62628   -0.00206   -7.78856
      H1   -10.01620   -0.66840   -7.21430
       H   -11.16268    2.02881  -11.00952
       O   -11.85635    1.45294  -11.33926
      H1   -12.60811    2.04080  -11.19211
       H   -11.87746   -0.00323  -12.44437
       O   -11.50228   -0.86443  -12.64857
      H1   -10.66682   -0.88238  -12.16634
       H   -13.75933    6.51711   -9.84280
       O   -13.41282    6.92333   -9.05451
      H1   -14.04689    7.64273   -8.89692
       H   -13.39743    3.65825  -12.02269
       O   -13.96971    3.00379  -11.53777
      H1   -14.41036    3.62850  -10.92507
       H    -7.72498    2.37789   -6.77024
       O    -7.53661    3.21923   -7.21751
      H1    -8.42315    3.56673   -7.31076
       H   -13.97093    3.16710   -8.36697
       O   -13.55789    4.00370   -8.23249
      H1   -13.99052    4.60269   -8.87175
       H   -11.67647    2.43774  -13.80940
       O   -11.02816    2.09087  -14.47314
      H1   -10.91177    2.79860  -15.13845
       H   -10.51312    8.38540   -8.02663
       O   -10.70172    7.48893   -8.35635
      H1   -11.63296    7.44434   -8.51540

