60
frame 0 | Written by MDAnalysis XYZWriter (release 2.4.3)
       H   -12.53815    2.46938    9.84560
       O   -11.91238    1.74602    9.94189
      H1   -12.46957    1.12074   10.45911
       H    -9.37303   -0.07404    9.21462
       O    -9.77869   -0.23696    8.37436
      H1   -10.54931    0.36112    8.49498
       H    -9.29394    3.75099    9.46892
       O    -9.75440    3.23024    8.81187
      H1   -10.50765    2.89904    9.29177
       H   -12.87995    4.51979    9.42645
       O   -13.39132    4.06800    8.73932
      H1   -13.21268    4.66089    8.00632
       H   -11.74652   -2.88758   12.23777
       O   -11.40291   -2.24100   11.63460
      H1   -11.89820   -2.38788   10.81571
       H   -15.32003    4.04990   12.86862
       O   -15.04355    3.14489   12.55650
      H1   -14.35552    3.37856   11.93454
       H    -8.59060   -2.63667   10.03693
       O    -8.60055   -2.53774   11.02040
      H1    -9.52742   -2.41755   11.23404
       H   -12.51912   -0.66723   12.17408
       O   -13.14087    0.02984   11.92181
      H1   -13.27570    0.56070   12.72856
       H   -15.83997    0.48608    6.75127
       O   -15.77822    1.42577    6.51093
      H1   -14.81218    1.50770    6.56071
       H   -10.62574    3.79422    5.36864
       O   -11.17084    3.27264    5.95556
      H1   -10.65646    3.12160    6.76342
       H   -16.34187    4.92935    8.75370
       O   -16.23045    3.95671    8.74795
      H1   -15.28279    3.90042    8.70514
       H   -13.60160    2.11517   14.50088
       O   -13.29161    1.20052   14.43064
      H1   -12.33400    1.27020   14.52004
       H   -17.83534    1.12121   10.58047
       O   -17.83914    0.25730   11.00253
      H1   -16.88746    0.08683   11.15197
       H    -8.87813   -0.19925   11.65180
       O    -8.63555    0.56430   11.07323
      H1    -7.72413    0.37444   10.75895
       H   -12.73074    2.15672    7.17862
       O   -12.80440    1.21043    7.35790
      H1   -12.78082    1.21754    8.31425
       H   -13.07524    4.91054   11.70507
       O   -12.72317    4.03886   11.49439
      H1   -12.00510    3.89069   12.12335
       H    -9.59024    2.69543   12.51531
       O   -10.19118    3.15075   11.90291
      H1   -10.52815    2.40611   11.34683
       H    -9.21246    6.12406   11.31843
       O    -9.98365    5.82140   11.80124
      H1    -9.97685    4.90020   11.60789
       H   -14.77560   -0.78227   11.73608
       O   -15.63427   -1.12737   12.01931
      H1   -15.89534   -1.70860   11.27291
       H   -15.17276   -0.04806    8.70020
       O   -15.54376    0.56431    9.35208
      H1   -16.04962    1.18047    8.81356

