60
frame 3 | Written by MDAnalysis XYZWriter (release 2.4.3)
       H   -10.69771   -3.87869    2.21445
       O   -11.50870   -4.27690    2.52410
      H1   -11.40191   -5.19050    2.24294
       H   -11.54595   -7.07777    8.02313
       O   -12.41259   -6.70295    7.76850
      H1   -12.24688   -6.38376    6.88111
       H   -14.54614   -1.58198    3.87138
       O   -14.81262   -2.47181    3.65092
      H1   -15.42007   -2.32641    2.89416
       H   -11.93399   -4.72435    5.15496
       O   -12.68014   -5.33557    5.29021
      H1   -13.47493   -4.78393    5.41162
       H   -10.16498   -3.82017    4.02170
       O   -10.37623   -3.55432    4.94841
      H1    -9.71579   -2.83451    5.08438
       H    -7.59315   -3.05957    3.33217
       O    -8.50007   -3.02123    3.03774
      H1    -8.61572   -2.07330    2.87595
       H   -14.67793   -2.86467    8.46962
       O   -13.92507   -2.46080    8.90988
      H1   -13.21044   -2.51284    8.20734
       H   -14.64816    1.85786    5.92948
       O   -14.15213    1.09169    6.19851
      H1   -13.97036    0.55743    5.39872
       H    -8.88772   -0.01112    5.48909
       O    -8.71257   -0.94429    5.62392
      H1    -7.85786   -0.96438    6.09768
       H   -12.61050    0.50170    4.22453
       O   -13.10714   -0.33897    4.21206
      H1   -12.54245   -0.91647    4.73659
       H   -11.23996   -5.14690    8.29289
       O   -10.55636   -4.53273    8.02407
      H1   -10.75519   -4.37386    7.11126
       H    -9.08265   -5.04449    6.76773
       O    -8.31822   -5.07271    6.17249
      H1    -8.75187   -4.79694    5.36557
       H   -12.47575   -0.56583    2.58268
       O   -12.16580   -0.68259    1.68997
      H1   -12.69091   -1.45082    1.39458
       H   -11.42923    0.00828    8.27909
       O   -10.79591   -0.66871    8.56542
      H1    -9.92636   -0.19925    8.44606
       H   -11.08104   -3.39884    9.35028
       O   -11.58603   -3.47107   10.20993
      H1   -12.51393   -3.52724    9.87673
       H   -12.98464    1.57318    7.39391
       O   -12.17459    1.56475    7.88989
      H1   -12.43561    1.84607    8.76507
       H   -14.27625   -0.79084    9.15915
       O   -14.57274    0.14935    9.16235
      H1   -14.89466    0.30611    8.25351
       H    -7.80793   -1.64126    9.76320
       O    -8.16415   -1.79408    8.87995
      H1    -9.10743   -1.84270    9.02102
       H   -11.61842   -1.23406    7.16375
       O   -12.16832   -1.76670    6.55002
      H1   -11.51976   -2.39998    6.24513
       H   -16.03840   -4.36077    6.01318
       O   -15.28118   -4.46025    5.42331
      H1   -15.29432   -3.56396    5.02206

