60
frame 3 | Written by MDAnalysis XYZWriter (release 2.4.3)
       H     1.95570    0.26499    4.09010
       O     2.61747    0.81038    3.64057
      H1     2.83862    0.23965    2.89396
       H     3.83200   -0.14045    0.68883
       O     3.39266   -0.71246    1.32122
      H1     2.52389   -0.93372    0.93744
       H     1.31771    1.87704    0.30161
       O     1.83297    2.39004   -0.33074
      H1     1.32147    3.18524   -0.43353
       H     0.85002    3.18044    3.86638
       O     1.64608    3.23355    4.43763
      H1     2.20712    2.46012    4.18438
       H     4.03700   -2.40928    0.84692
       O     3.98772   -3.32012    0.55720
      H1     4.69706   -3.41910   -0.07048
       H     3.63109   -3.18377    3.86739
       O     2.73187   -3.52933    3.91071
      H1     2.85953   -4.48578    3.77411
       H     5.56255   -3.45035    3.10779
       O     5.18166   -2.61408    3.38497
      H1     5.04160   -2.20246    2.53846
       H     3.78194    3.25459    2.67713
       O     4.39290    3.98566    2.77500
      H1     4.21467    4.32941    3.65422
       H     0.87977   -0.12447    5.46253
       O     1.44769   -0.89827    5.28593
      H1     2.20737   -0.68299    5.82060
       H     0.61187   -1.51364   -0.18554
       O     1.36760   -1.01806   -0.48830
      H1     0.94063   -0.27914   -0.94769
       H    -0.22759    0.66246    2.04491
       O    -0.25424    1.55692    1.72003
      H1    -0.71363    2.03971    2.40128
       H     0.26503   -1.90885    3.79848
       O     0.17406   -2.70224    3.26022
      H1     1.05247   -3.10397    3.25035
       H     1.24413   -4.58731   -0.32846
       O     1.88743   -5.12568    0.14421
      H1     2.52285   -4.44866    0.41315
       H     7.75738   -0.96928    1.38846
       O     8.36205   -1.72374    1.33165
      H1     8.91483   -1.56376    2.10127
       H    -0.62221   -2.61572    1.49743
       O    -0.80285   -2.15443    0.67893
      H1    -0.88056   -2.88327    0.01264
       H     5.29273    1.82859    0.08050
       O     4.52547    1.33521   -0.22169
      H1     3.74968    1.87909   -0.25708
       H     6.57241    0.73527    2.02185
       O     6.33276   -0.18796    1.93519
      H1     6.64012   -0.54483    2.77289
       H     6.48957   -3.61988   -1.92808
       O     6.40495   -3.01394   -1.17865
      H1     6.25663   -2.10842   -1.51340
       H     3.75293   -1.64839   -3.14087
       O     2.97387   -1.08662   -3.00383
      H1     2.78110   -1.11985   -2.07366
       H     6.90096    0.10694   -1.35598
       O     6.18204   -0.42762   -1.65559
      H1     5.41275    0.08106   -1.43833

