60
frame 3 | Written by MDAnalysis XYZWriter (release 2.4.3)
       H    -3.94659   18.61218    7.67783
       O    -3.51287   18.37691    8.51603
      H1    -3.79758   19.10194    9.09961
       H    -1.10252   15.71806   10.36315
       O    -1.69031   15.08280   10.82283
      H1    -2.51280   15.57526   10.92052
       H     1.13828   15.37502   14.93527
       O     0.66737   15.65346   14.15107
      H1     0.33855   16.56466   14.36190
       H     1.03662   15.21490    9.94209
       O     0.97851   15.53900   10.83407
      H1     0.37374   14.89675   11.27496
       H    -5.68127   17.55712   13.73938
       O    -5.91526   18.28136   14.29927
      H1    -6.53081   17.88191   14.96568
       H    -4.04930   14.98844   14.21226
       O    -3.51757   14.20830   14.37645
      H1    -2.84816   14.28784   13.69267
       H    -2.70762   17.97429   13.48993
       O    -2.59227   17.80779   12.52322
      H1    -1.63821   17.61180   12.46426
       H    -1.08696   13.95016   12.24859
       O    -1.17369   13.87046   13.19567
      H1    -0.55616   14.51299   13.60164
       H    -3.60331   17.63928   16.43278
       O    -3.56349   18.12892   15.61206
      H1    -4.48749   18.11328   15.31461
       H    -4.21154   16.57994   12.22856
       O    -5.03394   16.13886   12.05545
      H1    -5.49892   16.69323   11.44099
       H    -1.60662   18.20700   15.61131
       O    -0.73370   18.21822   15.27868
      H1    -0.36321   18.92975   15.83525
       H    -1.52313   13.48131   16.89158
       O    -2.14050   14.21176   16.82199
      H1    -2.67392   13.96144   16.08423
       H     1.58913   18.15371   10.14736
       O     1.59803   18.59055    9.31304
      H1     0.63425   18.75988    9.23599
       H    -7.70360   18.74771   14.18328
       O    -8.54252   19.08302   13.83536
      H1    -9.20201   18.50635   14.22386
       H    -8.05213   17.01229   11.12618
       O    -7.42461   17.31625   10.47729
      H1    -7.44245   16.59517    9.84843
       H    -1.97159   15.84884    6.30879
       O    -1.66868   16.58539    6.85627
      H1    -2.40843   16.75046    7.45513
       H     0.53286   18.47955   11.96782
       O    -0.03238   17.94812   11.40885
      H1     0.57800   17.21196   11.19922
       H    -0.34299   16.88908   16.66333
       O    -0.47718   16.22169   17.32710
      H1    -1.06490   15.63168   16.89755
       H    -4.73332   15.37686   10.52225
       O    -4.49638   14.93002    9.69125
      H1    -4.86898   15.55600    9.03349
       H    -6.39120   15.29274   14.12539
       O    -5.90419   15.62455   14.89348
      H1    -6.40980   15.23813   15.59565

