60
frame 3 | Written by MDAnalysis XYZWriter (release 2.4.3)
       H    13.21311  -13.21085   -1.17928
       O    12.68716  -13.58187   -1.88270
      H1    12.90763  -13.10100   -2.66049
       H     9.77408  -11.30786   -5.82725
       O     9.54543  -11.10879   -4.90133
      H1    10.15757  -11.63546   -4.38683
       H     6.76611  -13.54039   -6.64415
       O     6.20512  -13.66172   -5.86639
      H1     6.84829  -13.70617   -5.14881
       H     7.53817   -8.37635   -0.74467
       O     6.71181   -8.38468   -0.24850
      H1     6.32656   -7.54255   -0.42759
       H    10.74138  -14.42202   -6.54084
       O    11.34884  -14.21906   -5.79252
      H1    12.21765  -14.39108   -6.14488
       H     6.04911  -14.04407   -2.47022
       O     6.06779  -14.88069   -2.97850
      H1     5.19502  -14.95534   -3.40716
       H     9.74199  -11.35133   -0.43170
       O     9.42272  -10.69008    0.21962
      H1     8.54299  -11.01222    0.45905
       H    11.64019   -9.77050   -3.45285
       O    11.16192   -9.18111   -4.09981
      H1    10.41282   -9.73233   -4.35006
       H     6.23079  -11.74161   -2.16900
       O     5.99162  -12.45384   -1.57577
      H1     5.15910  -12.16252   -1.14986
       H     8.38239  -15.21893   -0.63525
       O     7.83796  -15.88521   -0.17691
      H1     6.92883  -15.65654   -0.34145
       H    12.80161  -11.73952   -4.99746
       O    12.42356  -12.24506   -4.26639
      H1    12.17081  -13.11820   -4.61564
       H     9.56538   -8.68226   -2.24430
       O     8.84699   -9.16211   -1.78978
      H1     9.30856   -9.74796   -1.13473
       H    11.74311  -10.40408    1.25407
       O    12.24158  -11.22062    1.09191
      H1    11.70587  -11.88917    1.53955
       H    11.34266  -12.23599   -2.02969
       O    10.46811  -11.82684   -2.02906
      H1     9.86271  -12.56298   -2.16073
       H    12.03834   -9.18565   -1.02599
       O    12.72187   -9.03550   -1.67356
      H1    13.34937   -9.78261   -1.69284
       H    10.57251  -14.26535   -0.84925
       O     9.83947  -14.51671   -1.44384
      H1    10.23314  -15.15478   -2.03720
       H    10.25992  -14.25295    1.57545
       O    10.89582  -13.62057    1.16874
      H1    11.72389  -14.03987    1.30120
       H     7.59615  -10.05381   -2.83001
       O     7.14903  -10.64311   -3.45188
      H1     7.80759  -10.84964   -4.15345
       H    10.68699   -7.62836   -3.36701
       O    10.17261   -6.94198   -2.92238
      H1    10.07875   -6.29600   -3.63896
       H     6.93069  -12.34419    0.22069
       O     7.25346  -12.17171    1.11179
      H1     6.68659  -11.42050    1.31929

