60
frame 3 | Written by MDAnalysis XYZWriter (release 2.4.3)
       H    11.46045  -12.50569   -8.39055
       O    11.15831  -11.90221   -7.70560
      H1    11.95887  -11.40031   -7.44887
       H    13.67470  -15.08128  -11.48327
       O    13.46726  -14.16368  -11.68441
      H1    14.29418  -13.72407  -11.54496
       H    15.64593  -12.59535   -7.75718
       O    16.18692  -11.98713   -7.23467
      H1    17.13984  -12.16754   -7.38635
       H    17.71546  -13.25063  -11.42677
       O    18.48356  -12.73276  -11.19848
      H1    18.23081  -11.79115  -11.25381
       H    14.03624  -12.47686   -9.83805
       O    13.38667  -11.83792   -9.55824
      H1    12.67530  -12.01411  -10.17490
       H    14.40833  -12.68736  -17.04234
       O    14.88285  -12.58730  -16.20998
      H1    14.46271  -13.31024  -15.65210
       H    11.80403  -14.41063  -15.01089
       O    10.82605  -14.35895  -15.18386
      H1    10.71681  -15.18077  -15.66522
       H    15.27997  -11.14210   -9.51243
       O    15.86202  -10.53616   -9.97833
      H1    16.72944  -10.58038   -9.52814
       H    17.49048  -15.90645   -9.88814
       O    17.04033  -15.70839   -9.07470
      H1    17.74868  -15.72236   -8.39588
       H    14.94123  -10.21598  -13.67934
       O    14.68571  -11.15112  -13.76498
      H1    15.39135  -11.52831  -14.30954
       H    16.21609  -16.41269  -15.32193
       O    15.53406  -16.14852  -14.64265
      H1    15.66837  -16.80951  -13.96835
       H    16.61848  -16.72474  -12.32022
       O    16.04145  -17.46170  -12.32500
      H1    16.46643  -18.07792  -11.72200
       H    15.92442  -12.10963  -11.01128
       O    15.85179  -12.64897  -11.81163
      H1    15.52226  -12.01214  -12.47346
       H    12.14630  -14.45380  -10.07138
       O    11.79589  -14.12990   -9.22863
      H1    11.19840  -14.84669   -9.00541
       H    17.15718  -15.16301  -13.81958
       O    17.72657  -15.01013  -13.03954
      H1    18.57985  -15.05760  -13.47800
       H    13.69911  -14.12301  -13.41588
       O    13.69948  -14.33191  -14.34562
      H1    14.39002  -14.99169  -14.38681
       H    14.34852  -14.19734   -8.61010
       O    15.13395  -13.76129   -8.97820
      H1    15.76753  -14.47099   -9.02287
       H    14.41021  -17.37195  -11.26615
       O    13.64581  -16.92362  -10.90794
      H1    12.90103  -17.17379  -11.46589
       H    11.16291  -15.90372  -12.25535
       O    10.56025  -15.47867  -11.63588
      H1    10.38801  -14.63538  -12.05519
       H    13.05579  -11.23719  -12.77677
       O    12.16007  -10.93239  -12.57573
      H1    11.71683  -10.90031  -13.44303

