60
frame 3 | Written by MDAnalysis XYZWriter (release 2.4.3)
       H    -4.38912   -2.37478  -17.47007
       O    -5.30376   -2.61191  -17.70039
      H1    -5.35245   -3.52323  -17.42123
       H     0.85414   -4.98436  -14.31122
       O    -0.08008   -4.81619  -14.12826
      H1    -0.08580   -3.90463  -13.85447
       H     4.59540   -0.99258  -16.94175
       O     3.79481   -0.44323  -16.97672
      H1     3.10761   -1.06996  -17.30578
       H     0.22363   -7.58711  -16.11115
       O     0.72822   -6.95944  -16.62413
      H1     1.43460   -6.65071  -16.02696
       H     0.24856   -1.07585  -17.67553
       O     0.86912   -1.41926  -17.01124
      H1     0.47408   -2.28997  -16.83625
       H    -2.78690   -4.00476  -15.26864
       O    -2.91462   -3.15819  -15.71841
      H1    -2.16045   -3.15763  -16.32310
       H     3.40858   -3.20176  -13.07332
       O     3.07386   -3.07972  -13.96698
      H1     3.88484   -2.78315  -14.44202
       H     2.18948   -1.71291  -12.70349
       O     1.73580   -1.91520  -11.86419
      H1     0.83350   -1.91312  -12.18995
       H     0.76793    3.25656  -17.06385
       O     0.39902    2.41592  -17.38754
      H1     0.49376    1.82733  -16.63294
       H     1.80720   -5.30988  -17.95513
       O     1.51990   -4.49590  -18.39891
      H1     2.28203   -3.89959  -18.19228
       H    -1.43554   -0.69628  -15.65459
       O    -0.73902   -0.18088  -15.20480
      H1     0.04941   -0.41814  -15.72894
       H     4.12534   -3.16923  -17.86219
       O     3.88845   -2.85958  -18.74569
      H1     4.74033   -2.87840  -19.25269
       H    -0.09925   -4.37596  -16.11061
       O    -0.49715   -3.84326  -16.84458
      H1     0.07177   -4.12771  -17.60168
       H    -0.76468   -1.01032  -12.20205
       O    -0.72251   -1.73228  -12.83164
      H1    -0.47721   -1.24728  -13.62773
       H     0.05902    1.87756  -14.11964
       O     0.83859    2.05361  -14.64905
      H1     1.15331    2.84172  -14.22861
       H    -2.66749   -1.91194  -13.29403
       O    -3.60547   -1.75314  -13.41693
      H1    -3.75960   -2.33574  -14.19664
       H    -2.28987   -6.62373  -16.26773
       O    -2.59998   -5.76242  -16.48788
      H1    -1.82420   -5.25530  -16.69892
       H     2.92047   -0.44929  -15.27456
       O     2.44623   -0.09621  -14.50820
      H1     1.79055    0.52699  -14.83778
       H    -3.84568   -1.06443  -15.58638
       O    -3.81967   -0.55562  -16.40397
      H1    -3.95094    0.34537  -16.05826
       H     3.23538   -5.90490  -15.29325
       O     2.44460   -5.34737  -15.29294
      H1     2.78076   -4.53467  -14.83179

