60
frame 0 | Written by MDAnalysis XYZWriter (release 2.4.3)
       H    11.72588   13.00374  -17.56027
       O    12.18929   13.53120  -18.20787
      H1    11.49756   14.18970  -18.42888
       H    14.05965   18.73453  -14.94250
       O    13.25237   18.35526  -15.31386
      H1    13.56079   17.55834  -15.78257
       H     8.27101   13.75903  -15.14420
       O     9.00593   14.13006  -14.62056
      H1     9.09592   13.39561  -14.02434
       H    10.43642   11.36864  -16.55800
       O    11.38369   11.51087  -16.39102
      H1    11.83657   10.67785  -16.49417
       H    13.58060   12.58342  -18.44455
       O    14.41922   12.11457  -18.47373
      H1    15.04932   12.78356  -18.14109
       H    15.46663   13.28042  -13.90779
       O    15.15545   13.37581  -12.99758
      H1    15.13253   14.33347  -12.82816
       H    11.32752   17.23139  -15.75261
       O    10.80860   16.86980  -16.48627
      H1     9.88901   16.96954  -16.18687
       H    12.06729   17.55589  -17.60177
       O    12.71670   17.96219  -18.21011
      H1    12.64690   18.93901  -18.07786
       H    16.80552   18.16909  -17.19928
       O    16.26059   17.61868  -17.78143
      H1    15.87822   17.01039  -17.14409
       H    14.41996   11.47587  -16.43669
       O    14.66321   10.72819  -15.84320
      H1    14.00495   10.03102  -15.93105
       H    12.94371   18.18011  -11.56880
       O    13.85727   18.36042  -11.31531
      H1    13.89170   18.26897  -10.34612
       H    19.08561   16.75071  -15.65060
       O    18.11432   16.64111  -15.54440
      H1    17.90488   17.35399  -14.92197
       H    13.30116   15.31597  -15.84721
       O    13.95351   15.88440  -16.34506
      H1    13.61244   15.87415  -17.26078
       H     9.07124   15.68600  -13.34832
       O     9.31477   16.26249  -12.57222
      H1     9.61874   15.59813  -11.96736
       H    11.25361   14.77967  -15.19919
       O    12.05313   14.53092  -14.72960
      H1    12.07646   13.56396  -14.66415
       H     6.28335   16.53305  -18.36099
       O     6.58256   15.84239  -17.77419
      H1     6.95407   16.35409  -17.03044
       H    12.47560   15.83765  -13.06517
       O    12.19473   16.63692  -12.64100
      H1    11.24328   16.74162  -12.84863
       H    15.30223   14.51845  -16.54156
       O    15.62156   13.61727  -16.71055
      H1    16.49448   13.53535  -16.26768
       H     7.51176   17.55672  -15.14229
       O     8.01102   16.93321  -15.70376
      H1     8.22144   16.17481  -15.15059
       H    14.38527   16.95790  -12.19464
       O    14.92706   16.14268  -12.33104
      H1    15.82052   16.47566  -12.36612

