60
frame 3 | Written by MDAnalysis XYZWriter (release 2.4.3)
       H    -0.30778   -6.34020    6.90279
       O    -0.35800   -7.29239    6.76627
      H1     0.33305   -7.43345    6.09760
       H    -0.85852   -3.87615    4.39905
       O    -1.54476   -4.27198    4.98766
      H1    -1.14885   -4.26650    5.85527
       H    -3.47012   -9.11538    2.69075
       O    -3.42668   -8.97233    3.65664
      H1    -2.92141   -8.16140    3.70023
       H     0.20888   -3.95829    7.89687
       O    -0.53352   -4.47994    7.56452
      H1    -1.18200   -4.43330    8.28854
       H    -2.12476   -9.99088    5.68001
       O    -1.45783  -10.65380    5.86221
      H1    -1.29552  -10.55484    6.79654
       H     2.46951   -7.36208    6.90409
       O     2.72873   -6.79819    7.63510
      H1     2.28096   -7.15394    8.42253
       H    -2.19737   -7.90121    6.86254
       O    -2.95508   -8.37234    7.23824
      H1    -3.14879   -7.94203    8.07652
       H     0.27916   -6.65998    9.23965
       O     0.73346   -6.94905   10.00600
      H1     0.50307   -6.32556   10.71125
       H     1.59409   -1.79242    8.50023
       O     1.58684   -2.75110    8.46496
      H1     2.17502   -2.92683    7.72413
       H    -2.31031   -5.79924    4.21085
       O    -2.78381   -6.43682    3.66695
      H1    -3.54168   -5.91886    3.37186
       H     1.29987   -8.62149    4.34007
       O     1.63491   -7.95007    4.91743
      H1     1.98777   -7.31690    4.32114
       H    -3.70438   -5.69421    5.87393
       O    -4.12298   -5.10331    6.48657
      H1    -4.77783   -5.65241    6.95112
       H     2.88573   -9.60074    5.86249
       O     3.80157   -9.62983    6.18304
      H1     3.96479  -10.52211    6.52313
       H     4.96610   -5.02971    6.91366
       O     4.22945   -4.74558    7.43670
      H1     3.78136   -5.58908    7.58659
       H     0.10458   -1.67808    6.54210
       O    -0.74366   -1.56460    6.95339
      H1    -1.06300   -2.46120    7.09455
       H    -2.68278   -7.74210   10.11477
       O    -3.21551   -7.12603    9.58754
      H1    -2.70774   -6.31478    9.69813
       H    -2.79370   -4.27215   10.51080
       O    -2.40091   -4.48735    9.67959
      H1    -3.14705   -4.12279    9.15613
       H     0.52433  -10.47953    5.49369
       O     1.36961  -10.73004    5.07090
      H1     1.65823  -11.49480    5.53558
       H    -1.23810   -9.86952    8.76315
       O    -0.38516  -10.28402    8.59281
      H1     0.18525   -9.56717    8.33543
       H    -4.02428   -2.95827    5.24734
       O    -3.38800   -2.27845    4.99180
      H1    -2.52665   -2.67486    5.24007

