60
frame 0 | Written by MDAnalysis XYZWriter (release 2.4.3)
       H    -7.99492    5.23412   -1.29018
       O    -8.85348    5.31861   -0.90348
      H1    -8.68461    5.01888    0.02009
       H   -12.31203    5.85282   -1.56599
       O   -12.43086    5.05595   -1.03751
      H1   -11.59871    4.56318   -1.23043
       H   -13.65602    2.58304    4.06116
       O   -14.01085    3.24486    3.44948
      H1   -13.44395    3.13408    2.69561
       H   -11.70433    7.10945    6.20323
       O   -10.88385    7.09374    5.69766
      H1   -11.26017    7.23223    4.79048
       H    -8.77557    7.51065    2.96441
       O    -8.60467    7.13305    3.81736
      H1    -7.77715    6.68246    3.77678
       H   -12.56029    4.61957    6.10527
       O   -13.24151    5.22610    6.28971
      H1   -13.92561    4.92959    5.69286
       H   -14.92374    6.36929    3.68847
       O   -15.11909    6.78272    2.85585
      H1   -15.79280    6.22404    2.50198
       H   -10.62574    3.79422    5.36864
       O   -11.17084    3.27264    5.95556
      H1   -10.65646    3.12160    6.76342
       H   -11.03518    9.42106    5.90655
       O   -10.13604    9.81583    5.99997
      H1    -9.53383    9.16757    5.67591
       H   -12.52777    7.88378    3.24436
       O   -11.66384    7.46184    3.00916
      H1   -11.93099    6.70535    2.49142
       H   -10.14025   10.94119    3.17065
       O    -9.84570   11.54634    3.88363
      H1    -9.66474   10.95780    4.63807
       H    -9.66349    9.44714    1.45524
       O    -9.67583    9.16697    2.36224
      H1   -10.54444    8.67404    2.41010
       H   -14.51769    7.37920    1.45711
       O   -14.16076    7.81217    0.64002
      H1   -14.68924    8.61014    0.53841
       H   -10.00931    4.24096    1.53705
       O    -9.06824    4.15952    1.41732
      H1    -8.72604    4.55390    2.23146
       H   -12.04954   10.04330    0.65654
       O   -12.04529    9.27861    0.09118
      H1   -12.78499    8.77107    0.40635
       H   -11.68962    8.47360   -1.39278
       O   -11.45498    7.70990   -1.93240
      H1   -10.50967    7.74964   -1.86306
       H   -12.08581    3.36846    1.42050
       O   -11.94230    4.31978    1.63899
      H1   -12.19643    4.76664    0.81677
       H    -9.46480    5.52854    4.33041
       O    -9.38600    4.55657    4.45855
      H1    -8.58770    4.50849    5.05700
       H   -14.42382    9.21391    3.35824
       O   -13.71202    9.20651    4.00598
      H1   -13.39739   10.14683    3.94865
       H   -15.63377    8.71547    6.67107
       O   -15.20132    7.93462    6.30970
      H1   -14.62245    8.24578    5.61651

