60
frame 3 | Written by MDAnalysis XYZWriter (release 2.4.3)
       H     3.80691   14.70158   -9.42348
       O     3.29292   14.48029   -8.63439
      H1     3.87036   13.89345   -8.11976
       H     9.07251   12.21101   -8.91184
       O     9.14705   11.81266   -8.03005
      H1     9.40766   12.59265   -7.48091
       H    11.18283    9.33984   -9.38121
       O    10.80791    9.40136   -8.48906
      H1    10.68951   10.32788   -8.28356
       H     6.88580    6.79934  -10.20852
       O     7.28419    7.60562  -10.63399
      H1     8.21299    7.38173  -10.78657
       H     7.83461   12.35096   -6.87762
       O     7.35141   12.54919   -6.05498
      H1     7.98010   13.04352   -5.54370
       H     1.03359   10.03704   -7.86182
       O     1.68401   10.18648   -8.56915
      H1     2.26769    9.41896   -8.51312
       H     8.27259   11.36846  -11.58483
       O     8.54615   10.90789  -12.39411
      H1     9.16413   11.48700  -12.87176
       H     9.45013   13.69411  -10.70356
       O     8.87913   12.94450  -10.45128
      H1     8.05917   13.39926  -10.17416
       H     5.93493   12.50072   -9.24827
       O     6.18488   13.37190   -9.63932
      H1     5.41191   13.48077  -10.20399
       H     6.65407   10.18424   -8.88862
       O     5.80137   10.65505   -8.89851
      H1     5.52243   10.58854   -9.85166
       H     5.39519   11.22943  -13.99592
       O     5.94193   11.36091  -13.19605
      H1     6.83701   11.07789  -13.42080
       H     8.42022    9.79545   -8.12958
       O     7.76211    9.09515   -8.25611
      H1     8.16620    8.58107   -8.96362
       H    10.21262    9.70037  -11.78305
       O    10.76214    9.21376  -11.16031
      H1    11.55291    9.10377  -11.68596
       H     3.56407   10.64898  -11.45660
       O     4.26574   11.18944  -11.06887
      H1     4.95704   11.31278  -11.71850
       H     6.06314    9.24014  -13.00723
       O     6.09019    8.26491  -13.09724
      H1     6.46973    8.00379  -12.25654
       H     4.98402    8.59069   -7.52590
       O     4.18872    8.51176   -7.00542
      H1     4.59461    8.54201   -6.11405
       H     6.72888   11.52981   -4.70016
       O     6.35288   11.20813   -3.86339
      H1     7.11580   10.87954   -3.34884
       H     5.40787   12.59489   -6.48656
       O     4.66643   12.62385   -7.12092
      H1     4.67355   11.72139   -7.50737
       H     2.57555    6.88640   -9.12390
       O     2.16936    7.09615   -8.26540
      H1     2.81788    7.68155   -7.82050
       H     7.64997    7.68571   -6.97045
       O     7.95329    7.10243   -6.25258
      H1     7.71816    7.65082   -5.46438

