60
frame 3 | Written by MDAnalysis XYZWriter (release 2.4.3)
       H    -8.63006  -11.62558  -16.45904
       O    -7.92680  -11.66358  -17.11169
      H1    -7.21315  -12.10515  -16.62769
       H    -9.67634  -15.05411  -17.41830
       O    -9.71315  -14.10350  -17.24829
      H1   -10.66481  -13.88073  -17.33021
       H   -14.57376  -13.36394  -14.65362
       O   -14.08588  -12.99921  -13.89858
      H1   -14.24662  -13.69833  -13.21667
       H   -11.54586  -11.10689  -13.31119
       O   -11.93245  -10.31572  -12.89421
      H1   -11.20495   -9.65738  -12.89806
       H    -9.53164  -15.52780  -11.36126
       O    -9.77511  -15.15476  -12.24393
      H1    -9.02467  -14.57245  -12.45669
       H   -10.85880  -10.87969  -18.97080
       O   -11.70312  -10.90509  -18.52818
      H1   -12.21570  -11.46175  -19.15774
       H    -7.22998   -9.20184  -14.03397
       O    -7.66379  -10.06925  -14.20438
      H1    -6.98206  -10.69268  -14.47992
       H   -10.07701  -16.19188  -13.87011
       O   -10.11398  -16.94433  -14.45653
      H1    -9.93847  -17.67023  -13.83673
       H    -5.34687  -12.73842  -15.14517
       O    -5.66171  -11.84768  -15.13199
      H1    -5.34002  -11.41270  -15.91309
       H   -12.98694  -14.60363  -17.11554
       O   -12.45321  -13.83190  -17.27029
      H1   -13.13757  -13.28689  -17.61415
       H   -10.52865  -14.15973   -9.70874
       O   -10.76160  -13.39061  -10.24732
      H1   -10.48160  -13.64322  -11.13592
       H    -8.75880  -13.68910  -15.08193
       O    -9.17353  -13.16820  -14.37212
      H1   -10.07226  -13.07091  -14.71235
       H    -9.58410   -7.46666  -13.83952
       O    -9.73749   -8.27763  -13.39786
      H1    -9.19506   -8.89890  -13.92759
       H    -7.74566  -15.50536  -15.47914
       O    -7.17933  -14.70721  -15.52922
      H1    -6.78312  -14.75978  -16.39637
       H    -6.66903  -13.75409  -12.97038
       O    -7.42691  -13.44111  -12.47991
      H1    -7.99625  -13.13807  -13.22427
       H   -12.63054  -14.06532  -11.61099
       O   -13.50899  -14.36793  -11.43356
      H1   -13.78669  -13.94620  -10.59611
       H   -14.94070  -10.73492  -14.46723
       O   -14.30826  -10.01566  -14.33648
      H1   -13.46396  -10.47575  -14.18945
       H   -13.17887  -16.55484  -15.59079
       O   -12.32303  -16.52560  -16.02344
      H1   -11.68294  -16.62209  -15.30731
       H   -12.62884  -12.68786  -14.77492
       O   -11.77660  -12.35651  -15.17941
      H1   -11.86787  -12.66240  -16.09389
       H    -9.23092  -10.30702  -15.36283
       O    -9.77156  -10.02602  -16.12157
      H1   -10.59947  -10.51372  -16.04300

