60
frame 0 | Written by MDAnalysis XYZWriter (release 2.4.3)
       H    13.89967   17.30597   -0.68572
       O    13.64736   16.36923   -0.53361
      H1    13.12282   16.40847    0.27978
       H    19.09040   13.38907   -8.09744
       O    18.33294   13.93676   -8.27348
      H1    18.23972   13.83558   -9.25895
       H    17.33169   16.05501   -2.54335
       O    16.96246   15.20136   -2.72365
      H1    16.68739   14.90569   -1.86985
       H    16.56797   11.56847    0.42084
       O    16.30245   12.47281    0.24839
      H1    15.82088   12.66474    1.06430
       H    18.56162   17.94663   -2.46294
       O    18.02232   17.65951   -3.20669
      H1    18.67163   17.22472   -3.78105
       H    16.61453   17.00245    2.72211
       O    17.13943   17.62588    2.26197
      H1    17.97859   17.71930    2.72679
       H    17.24132   16.51681   -8.53949
       O    18.19277   16.62950   -8.65084
      H1    18.62654   15.80291   -8.48274
       H    17.55470   10.41466   -3.84949
       O    17.87412   10.83389   -3.03409
      H1    18.38492   11.63522   -3.26565
       H    12.56827   13.42704   -4.67677
       O    12.14277   13.94596   -3.97818
      H1    12.76517   14.62728   -3.81636
       H    15.23028   19.00176   -2.03582
       O    14.51039   19.05538   -1.40364
      H1    13.70749   18.93441   -1.93648
       H    18.54997   18.48233   -7.79717
       O    19.19146   18.81039   -7.14771
      H1    18.68620   19.52744   -6.70975
       H    16.08867   13.52889   -5.94129
       O    16.19514   14.31912   -6.49540
      H1    16.96960   14.11278   -7.04159
       H    13.85671   16.50130   -4.43937
       O    12.97159   16.66113   -4.10931
      H1    12.39943   16.32779   -4.82652
       H    15.34531   11.09683   -4.76671
       O    15.13149   12.02985   -4.90565
      H1    15.01420   12.38028   -3.98629
       H    15.63116   15.48152   -5.39703
       O    15.48488   16.16038   -4.72558
      H1    16.09396   15.85940   -4.02624
       H    12.17079   18.22469   -4.23640
       O    11.35674   18.76110   -4.32364
      H1    10.66503   18.10771   -4.43380
       H    17.73950   16.79640    0.47585
       O    18.31818   16.47269   -0.22306
      H1    18.45955   15.52263    0.05583
       H    15.65607   17.89683   -6.52321
       O    15.70549   18.83610   -6.61619
      H1    15.18043   19.05283   -7.38990
       H    19.23134   13.30267    0.09850
       O    18.66758   13.92990    0.55474
      H1    17.78693   13.59550    0.33496
       H    14.99239   15.05306    2.23551
       O    14.53292   14.68875    1.46196
      H1    14.74422   15.28895    0.73479

