60
frame 3 | Written by MDAnalysis XYZWriter (release 2.4.3)
       H    14.30013    4.10139   10.93150
       O    14.31963    4.65648   11.69337
      H1    14.05508    4.09825   12.42902
       H     8.14439    6.78656    8.91708
       O     8.31703    6.12891    9.60651
      H1     7.91747    6.53698   10.41140
       H    16.42110    6.28484    8.59704
       O    16.67272    5.36188    8.80906
      H1    17.05393    5.02143    7.97989
       H    12.31152    5.64970    5.37824
       O    12.74299    4.95885    5.90331
      H1    12.69077    5.28503    6.79377
       H    10.07449    6.16773   10.11036
       O    10.94781    6.03868   10.54240
      H1    11.16367    6.93749   10.84356
       H    12.01507    8.74954   11.07635
       O    11.05721    8.71559   11.08355
      H1    10.78965    9.19202   11.88704
       H    14.22226    8.67853    6.46197
       O    13.41288    8.55444    6.96312
      H1    12.70787    8.95567    6.41885
       H    11.00104    6.92395    4.57707
       O    11.82502    6.79923    4.10182
      H1    11.55089    6.19102    3.39843
       H    16.80742    5.38315   10.38217
       O    16.76785    5.62293   11.30907
      H1    15.97798    5.13525   11.62416
       H    10.70225    1.04636   10.16073
       O    10.29534    1.75688    9.62650
      H1     9.32995    1.52371    9.67051
       H    14.43044    7.93652   11.57438
       O    13.78655    7.76601   10.84739
      H1    13.63540    6.80557   10.94192
       H    15.30537    8.35829    7.99638
       O    15.66861    7.86153    8.75202
      H1    14.89935    7.79401    9.33599
       H    12.87735    6.69477    8.28203
       O    12.80743    5.71872    8.34559
      H1    11.90315    5.69608    8.76968
       H    15.60338    3.10227    9.05587
       O    14.65129    3.00719    9.20261
      H1    14.29005    3.86205    9.02247
       H    14.09165   10.17108    8.16246
       O    14.30392   11.02974    8.53618
      H1    14.37380   11.59465    7.76269
       H    13.84314    1.77327    7.54197
       O    13.96041    0.82056    7.48683
      H1    13.16175    0.51318    7.02747
       H    15.57174    5.08846    4.39855
       O    14.85060    4.49187    4.15699
      H1    14.18194    4.67999    4.83382
       H    11.23415    4.36504   11.45238
       O    11.17460    3.48191   11.76473
      H1    10.69203    3.00186   11.08371
       H    11.11918    3.88334    5.57802
       O    10.20975    3.68973    5.41967
      H1     9.83530    3.47506    6.30197
       H     8.42221    4.26251    8.77016
       O     8.60514    3.71626    8.03530
      H1     9.20013    3.09604    8.46910

