60
frame 3 | Written by MDAnalysis XYZWriter (release 2.4.3)
       H    -4.03613    3.29960   16.31927
       O    -4.83125    3.68486   16.69263
      H1    -5.41899    3.53753   15.93624
       H    -3.22426   -0.24474   12.75754
       O    -2.72231    0.61955   12.75586
      H1    -3.34700    1.23369   13.18142
       H    -6.22627    4.82389    9.90371
       O    -6.55315    4.62547   10.80844
      H1    -7.48634    4.77361   10.73640
       H    -1.58501    2.89202   10.86431
       O    -1.03319    2.15240   11.23244
      H1    -1.67293    1.66198   11.78034
       H    -4.54929    5.50536   16.79681
       O    -4.15544    6.27511   17.24833
      H1    -4.89128    6.90720   17.30242
       H    -4.55073    3.52524   13.68131
       O    -4.24062    3.99953   12.84886
      H1    -5.05278    4.39971   12.47484
       H    -3.68825    2.33291    9.23638
       O    -3.80729    1.70894    9.94075
      H1    -3.03917    1.12717    9.90916
       H    -0.69868    8.09414   12.13788
       O    -1.31558    7.45140   12.51274
      H1    -2.04400    7.96576   12.87611
       H    -8.78151    6.55979   14.07104
       O    -9.08077    5.75079   13.61098
      H1    -8.44946    5.67937   12.88419
       H     0.05100    2.57795   12.56376
       O     0.77482    2.60089   13.19781
      H1     0.36476    3.02565   13.95540
       H    -5.73958   -0.41467   11.39168
       O    -5.68961    0.52732   11.52987
      H1    -5.13667    0.81315   10.81200
       H    -5.53837    0.34646   13.40301
       O    -5.85957    0.55210   14.28582
      H1    -5.40141   -0.07411   14.86699
       H    -1.08441    7.20053    9.34089
       O    -1.91572    6.89995    9.69145
      H1    -1.78581    6.89847   10.64413
       H    -4.00812    7.92626   10.50932
       O    -4.26389    7.77250   11.43280
      H1    -5.24697    7.75290   11.38669
       H    -3.05299    6.76292   16.10354
       O    -2.45049    7.24209   15.54569
      H1    -1.98233    6.54510   15.05783
       H    -1.44893    5.70634   13.37263
       O    -1.86222    5.06556   13.96562
      H1    -2.74005    4.86253   13.59779
       H    -2.77775    5.21710   10.01448
       O    -2.70043    4.25818   10.11094
      H1    -3.38718    4.09456   10.75417
       H    -7.15702    3.01058   11.01802
       O    -7.75949    2.28342   11.14909
      H1    -7.15478    1.55269   11.28128
       H    -2.25112    2.45458   16.14418
       O    -2.42803    2.56180   15.19678
      H1    -1.76479    3.15400   14.86676
       H    -6.28924    2.47490   14.65238
       O    -6.38146    3.40900   14.54401
      H1    -7.23267    3.63001   14.94010

