60
frame 3 | Written by MDAnalysis XYZWriter (release 2.4.3)
       H    -3.66013    7.43597  -10.76006
       O    -3.13019    7.53716   -9.94963
      H1    -2.56235    6.73161  -10.00453
       H    -4.66516    7.54657   -7.35330
       O    -4.86863    8.32840   -7.92163
      H1    -4.21687    8.29270   -8.64008
       H    -0.39054    4.81049   -7.21892
       O    -1.26903    5.20916   -7.39749
      H1    -1.16495    6.17809   -7.44733
       H    -3.68728    3.50091   -7.36385
       O    -3.63027    4.02221   -6.57091
      H1    -2.81819    4.52341   -6.68448
       H    -5.20129    3.46655   -9.52696
       O    -5.13197    2.80894   -8.81802
      H1    -6.04565    2.72517   -8.58473
       H    -0.26148    6.78536  -12.44439
       O    -0.82417    6.28833  -11.81796
      H1    -1.57567    6.04085  -12.33519
       H    -5.91611    5.90301   -6.54982
       O    -5.06678    6.24795   -6.25733
      H1    -4.42185    5.51135   -6.44351
       H    -1.67443   10.56230   -9.51217
       O    -2.49909   10.21226   -9.16415
      H1    -2.61669    9.38941   -9.69695
       H    -4.49799    5.17881  -10.04347
       O    -5.39836    5.01384  -10.31289
      H1    -5.98856    5.54530   -9.77854
       H    -5.47233    7.99358  -11.64554
       O    -5.08079    7.33056  -12.24236
      H1    -5.23431    6.48535  -11.82645
       H     1.09239    2.84666   -8.47325
       O     0.39621    2.22266   -8.69703
      H1     0.03271    2.62152   -9.50060
       H    -3.28183    1.59708  -10.59375
       O    -2.46099    2.14354  -10.52038
      H1    -2.15626    2.13151  -11.44801
       H    -1.44422    3.10859  -13.22527
       O    -1.39894    2.17011  -12.96835
      H1    -1.87948    1.66840  -13.63808
       H    -1.01305    8.66894   -8.31649
       O    -0.75592    7.79275   -7.98052
      H1     0.18311    7.82600   -8.16003
       H     2.46708    4.28968  -13.25474
       O     1.60623    4.60674  -13.42209
      H1     1.18372    4.49159  -12.56244
       H     1.58949    4.50216   -9.68713
       O     1.18702    4.62380  -10.56055
      H1     0.36722    5.11583  -10.42380
       H    -1.88081    4.82349   -9.03080
       O    -2.41644    4.86548   -9.86764
      H1    -2.60850    3.93988  -10.03894
       H    -3.16339    4.13282  -13.68394
       O    -2.36112    4.69474  -13.56917
      H1    -2.25649    5.07087  -14.44431
       H    -1.30611    0.79685  -10.64700
       O    -0.96905   -0.09820  -10.73037
      H1    -1.46128   -0.60093  -10.08813
       H    -1.21638    8.27431  -11.50812
       O    -1.03449    9.18301  -11.75074
      H1    -0.67494    9.08061  -12.63879

