60
frame 0 | Written by MDAnalysis XYZWriter (release 2.4.3)
       H    -7.40376   12.03137    8.74594
       O    -7.77897   11.47600    9.44033
      H1    -8.12953   10.74407    8.92634
       H    -7.71059    9.87907   13.02750
       O    -6.91380   10.36755   13.28010
      H1    -6.85026   11.08854   12.62485
       H    -3.64762   16.65689   11.07485
       O    -3.51902   15.71799   11.01431
      H1    -4.13947   15.30000   11.60500
       H    -6.06429   13.65561   15.91282
       O    -5.93880   13.13620   16.72491
      H1    -5.64144   13.76980   17.37037
       H    -2.58009   13.67502   16.22893
       O    -2.00673   14.43533   16.03585
      H1    -2.35000   14.81323   15.22108
       H    -8.62777   12.46886   12.32282
       O    -7.72899   12.56853   11.95636
      H1    -7.70075   11.92768   11.23230
       H    -4.81837   17.67025   13.01208
       O    -5.35941   17.12485   12.47263
      H1    -6.25943   17.27606   12.82590
       H    -3.11505   16.88296   13.89258
       O    -2.37131   16.30993   13.99227
      H1    -2.58160   15.56819   13.38721
       H    -1.64188   14.74979   11.84437
       O    -1.30246   14.21514   12.55251
      H1    -1.82202   13.43343   12.51363
       H    -3.85627    8.93610   13.76083
       O    -3.16135    9.24598   13.16041
      H1    -3.60690    9.83410   12.52333
       H    -4.40629   10.56967   10.36403
       O    -4.20609   10.83663   11.27595
      H1    -4.43605   11.78447   11.29384
       H    -8.78552   17.26636   13.09792
       O    -7.83170   17.28061   12.96220
      H1    -7.68189   16.67733   12.20563
       H    -4.08484   14.57958    9.66199
       O    -3.90946   13.85324    9.02038
      H1    -4.82461   13.68991    8.68891
       H    -7.00285   15.72779   10.29598
       O    -7.18034   15.30054   11.13146
      H1    -7.62799   14.47643   10.90337
       H    -6.93917   11.76238   16.02175
       O    -7.39904   10.94363   15.81355
      H1    -7.18691   10.85088   14.86082
       H    -5.58408   13.53062   12.44734
       O    -4.66284   13.43587   12.18234
      H1    -4.19784   12.98530   12.90879
       H    -1.43327   11.80090    8.33042
       O    -1.98605   11.70473    9.12991
      H1    -2.69938   12.36075    9.04364
       H    -3.10630   11.27714   14.36007
       O    -3.18512   12.22117   14.15992
      H1    -2.36929   12.58015   14.51574
       H   -10.12879   15.36418   14.99135
       O    -9.51721   14.71200   15.35977
      H1    -8.66123   14.96065   14.97435
       H    -5.81641   15.89009   15.51829
       O    -5.78745   15.29515   14.76054
      H1    -5.61756   15.88591   14.01920

