60
frame 0 | Written by MDAnalysis XYZWriter (release 2.4.3)
       H     8.53552    5.96490  -15.47809
       O     8.95597    6.06222  -16.35772
      H1     9.80346    6.52635  -16.18179
       H    10.72778   -0.11249  -17.62749
       O    10.09328   -0.24398  -18.31027
      H1    10.57675   -0.35285  -19.11287
       H    12.10191    1.60243  -13.42165
       O    12.54649    2.40337  -13.15585
      H1    13.28112    2.13461  -12.62103
       H    11.56230   -1.79763  -15.77689
       O    11.91134   -1.86882  -16.66241
      H1    11.33476   -2.55407  -17.08965
       H    13.09148    1.51720  -17.42595
       O    12.96011    1.80672  -16.53528
      H1    12.00870    1.64978  -16.44677
       H     9.79384    1.40332  -15.50629
       O    10.57003    0.83992  -15.72186
      H1    10.49838    0.10868  -15.11476
       H     8.45471    4.78005  -17.89684
       O     7.87966    4.30871  -18.46366
      H1     8.43139    3.88195  -19.11556
       H    10.35134    4.39435  -13.19575
       O    10.77452    4.92471  -13.89690
      H1    11.49471    4.32571  -14.16572
       H     7.07300    4.18042  -14.72603
       O     6.90998    5.09724  -14.54954
      H1     6.21589    5.34966  -15.16858
       H     9.50673   -2.35461  -13.09983
       O     8.66030   -2.33322  -13.58733
      H1     8.13503   -3.03242  -13.19251
       H    12.46718   -0.84801  -14.34701
       O    11.60660   -1.26150  -14.17782
      H1    11.91284   -2.07358  -13.75907
       H     6.09420    1.24974  -12.54574
       O     6.96080    1.66308  -12.62179
      H1     6.96586    2.31645  -11.92008
       H     6.88793    2.56868  -17.99746
       O     6.51063    1.84292  -17.46048
      H1     6.78452    1.03412  -17.93259
       H     8.57540   -3.27902  -16.65521
       O     7.85461   -2.86315  -16.12548
      H1     8.26913   -2.69122  -15.27420
       H     7.35081    2.06257  -15.74201
       O     7.98536    2.31346  -15.05519
      H1     7.59326    1.90137  -14.29146
       H     8.70240    1.03853  -12.74670
       O     9.40065    0.38543  -12.82304
      H1     8.90339   -0.43145  -12.94954
       H    13.46142    4.69406  -14.19471
       O    13.17987    4.46534  -15.12919
      H1    13.12157    3.49260  -15.05501
       H    10.84930    4.78700  -16.86889
       O    11.52304    4.37250  -17.44641
      H1    12.24930    4.28471  -16.85085
       H    10.65252    0.84342  -11.48179
       O    11.13333    0.49943  -10.70509
      H1    11.54367    1.30736  -10.35199
       H    14.20901    1.13863  -15.62146
       O    14.92723    0.75514  -15.08616
      H1    14.93491   -0.17623  -15.27408

