60
frame 0 | Written by MDAnalysis XYZWriter (release 2.4.3)
       H     2.70317   -7.45091  -10.81148
       O     1.94519   -7.05283  -10.42397
      H1     1.78705   -6.27338  -10.97006
       H     1.39898   -2.34702  -16.02329
       O     0.88290   -2.04692  -15.27375
      H1     0.94973   -2.70390  -14.55465
       H    -2.94843   -1.17733  -13.89734
       O    -2.18915   -0.59260  -13.94328
      H1    -1.74912   -0.68622  -13.08723
       H     2.57476   -5.44608  -13.78998
       O     1.87949   -5.63644  -13.15458
      H1     1.13712   -5.99815  -13.67041
       H     0.80648   -0.28254  -14.84288
       O     1.41288    0.40967  -14.58878
      H1     0.99054    1.14719  -15.02181
       H    -3.41600   -5.47034  -14.11872
       O    -3.67750   -4.58521  -14.29576
      H1    -4.22106   -4.69196  -15.07673
       H    -0.95962   -5.39452  -14.83404
       O    -0.77330   -6.23952  -14.43927
      H1    -1.20848   -6.18823  -13.58370
       H    -2.03539   -6.99772  -11.82221
       O    -2.23874   -6.14561  -12.24268
      H1    -1.91101   -5.51290  -11.59964
       H    -4.49053   -3.59830  -13.17693
       O    -4.71712   -2.79775  -12.64064
      H1    -5.55298   -2.50706  -12.95798
       H     2.81776   -0.05263  -11.86408
       O     1.91875    0.28289  -11.93341
      H1     1.92274    0.66013  -12.80289
       H    -0.70064   -3.16597  -15.51324
       O    -1.33573   -3.81856  -15.82148
      H1    -2.03313   -3.80184  -15.13053
       H     0.16432   -0.55657  -11.55579
       O    -0.76432   -0.61340  -11.78341
      H1    -1.19709    0.15643  -11.39844
       H    -0.51047   -3.84470   -7.94914
       O    -0.72830   -4.45556   -8.67177
      H1    -1.21363   -5.12649   -8.18688
       H     1.35380   -2.48424   -8.99529
       O     2.31476   -2.52760   -8.97652
      H1     2.54200   -3.41741   -8.67419
       H    -4.69114   -2.68671  -10.68927
       O    -4.24980   -2.67221   -9.82213
      H1    -4.32112   -1.71203   -9.61977
       H    -1.35082   -3.89302  -10.22494
       O    -1.85080   -3.81614  -11.03395
      H1    -2.69807   -3.44492  -10.76273
       H     2.82273   -2.42135  -12.38430
       O     3.37213   -2.36603  -13.16192
      H1     2.87255   -1.75141  -13.74102
       H    -0.39498   -3.39158  -12.11520
       O     0.44978   -3.28459  -12.57100
      H1     0.75742   -4.18525  -12.80467
       H    -1.69722   -1.96555   -6.45039
       O    -2.21646   -2.26709   -7.19953
      H1    -1.59184   -2.26751   -7.91980
       H    -0.26662   -0.61539   -9.11012
       O    -0.52076   -1.54471   -9.10698
      H1    -0.96694   -1.71248   -9.93656

