60
frame 7 | Written by MDAnalysis XYZWriter (release 2.4.3)
       H     1.83337  -13.51038    7.94322
       O     2.27698  -13.01918    8.66403
      H1     2.61557  -12.15863    8.27338
       H     7.44982  -13.58133    6.10267
       O     7.30888  -14.18743    5.38992
      H1     7.48606  -13.80707    4.52263
       H     5.15208  -13.72760   12.41251
       O     5.97328  -14.15302   12.59245
      H1     6.00440  -14.81822   11.85345
       H     4.59810  -18.50585    5.22551
       O     4.80818  -19.23964    4.63560
      H1     4.34361  -19.06925    3.77888
       H     5.94940  -11.76849    9.78706
       O     5.23998  -12.34410    9.43061
      H1     5.64931  -13.23263    9.54353
       H     7.04782  -16.78656   11.55865
       O     7.83525  -16.23517   11.71134
      H1     7.99175  -16.41218   12.63241
       H     4.23561  -17.34270    7.66974
       O     4.83981  -17.41018    8.43145
      H1     4.82879  -18.36408    8.69339
       H     3.45102  -16.25662    5.63609
       O     3.33043  -17.06306    6.18977
      H1     2.37236  -17.05862    6.38866
       H     5.69267  -12.06555    6.23155
       O     4.87640  -12.49301    6.61589
      H1     4.98922  -12.42976    7.57955
       H     2.83689  -17.94425   12.58424
       O     3.20917  -17.14084   12.16890
      H1     2.77714  -16.89401   11.29706
       H    -0.22424  -16.19742    6.56051
       O     0.70407  -16.09611    6.33418
      H1     0.99414  -15.21564    6.11764
       H     5.13575  -14.50282    5.00459
       O     4.33157  -14.94198    4.71890
      H1     4.46264  -15.15180    3.77621
       H     3.35918  -16.38694    9.27367
       O     2.78262  -15.81973    9.79613
      H1     2.73322  -14.96363    9.29844
       H     3.41322  -13.26978    4.59768
       O     3.10624  -12.55643    4.03106
      H1     2.53153  -12.93243    3.31456
       H     0.37687  -17.56012    5.17926
       O     0.22411  -18.30972    4.63272
      H1     0.61527  -18.01371    3.82942
       H     7.06325  -15.22723    8.61428
       O     6.89355  -14.63823    9.30296
      H1     7.44258  -14.93614   10.06594
       H     5.93263  -18.21401   12.69848
       O     5.74211  -18.04156   11.75951
      H1     4.84535  -17.65032   11.73620
       H     8.85954  -16.52366    7.51840
       O     9.72997  -16.75207    7.76905
      H1    10.27308  -15.95169    7.80800
       H     0.49454  -15.70884   10.77124
       O    -0.38079  -16.03502   11.05073
      H1    -0.84781  -15.28532   11.41288
       H     7.05774  -15.69014    6.41119
       O     7.21952  -16.31822    7.14041
      H1     6.39813  -16.68961    7.45098

