60
frame 3 | Written by MDAnalysis XYZWriter (release 2.4.3)
       H   -10.83833    0.10921   10.34136
       O   -10.98151    0.64841   11.13668
      H1   -11.59442    0.15912   11.71139
       H    -7.73430    1.13206    8.16539
       O    -8.58089    1.25513    8.59353
      H1    -8.30708    1.68228    9.42722
       H   -11.74668    2.43382   11.65229
       O   -12.38139    3.15462   11.73689
      H1   -11.88743    3.89119   12.16546
       H   -12.83858    4.18710    8.44333
       O   -12.23522    4.51435    9.12435
      H1   -12.52667    4.06328    9.95720
       H   -14.41006    3.96904    7.28353
       O   -13.60507    3.89178    6.77178
      H1   -13.54619    4.74493    6.30434
       H    -6.22627    4.82389    9.90371
       O    -6.55315    4.62547   10.80844
      H1    -7.48634    4.77361   10.73640
       H    -9.45737    6.09475   10.53176
       O    -9.19302    5.21304   10.24292
      H1    -9.93859    4.87136    9.75954
       H   -10.28534    4.68556    6.23221
       O   -10.18050    5.50198    5.80322
      H1   -10.89596    5.46230    5.16711
       H   -10.84052    2.10659    4.95692
       O   -11.79130    2.19655    4.85876
      H1   -12.08637    2.25358    5.75101
       H    -8.49002    2.08295    4.08682
       O    -8.98243    1.71115    4.84054
      H1    -8.48823    2.14967    5.57002
       H    -8.88772   -0.01112    5.48909
       O    -8.71257   -0.94429    5.62392
      H1    -7.85786   -0.96438    6.09768
       H   -10.68925    3.95114    8.01942
       O    -9.77506    3.69261    7.85980
      H1    -9.78594    2.72293    7.92153
       H    -4.54565    4.26893    7.42570
       O    -5.36286    4.25917    7.93051
      H1    -5.98991    3.98837    7.27932
       H   -11.42923    0.00828    8.27909
       O   -10.79591   -0.66871    8.56542
      H1    -9.92636   -0.19925    8.44606
       H   -12.98464    1.57318    7.39391
       O   -12.17459    1.56475    7.88989
      H1   -12.43561    1.84607    8.76507
       H    -7.45286    7.07638    7.87287
       O    -8.30696    7.14920    8.28975
      H1    -8.24025    6.49796    9.00719
       H    -7.15702    3.01058   11.01802
       O    -7.75949    2.28342   11.14909
      H1    -7.15478    1.55269   11.28128
       H   -11.61842   -1.23406    7.16375
       O   -12.16832   -1.76670    6.55002
      H1   -11.51976   -2.39998    6.24513
       H    -7.89047    3.71991    7.05869
       O    -7.34549    3.29080    6.38160
      H1    -7.16790    3.96777    5.73060
       H    -5.70163    1.77182    7.28156
       O    -5.91332    1.04339    7.89431
      H1    -5.19648    1.17407    8.57070

