60
frame 0 | Written by MDAnalysis XYZWriter (release 2.4.3)
       H    -3.52891   -1.46767  -16.38909
       O    -4.27819   -1.79462  -15.89119
      H1    -4.62712   -2.56503  -16.36080
       H     1.39898   -2.34702  -16.02329
       O     0.88290   -2.04692  -15.27375
      H1     0.94973   -2.70390  -14.55465
       H    -1.97259   -9.15011  -14.87294
       O    -2.41716   -8.26797  -14.94609
      H1    -1.65548   -7.69353  -14.83381
       H    -1.57697   -6.23325  -17.73500
       O    -0.62967   -6.40636  -17.94307
      H1    -0.57163   -7.38635  -17.96237
       H     1.62808   -1.78009  -18.19507
       O     1.06923   -1.02268  -18.34965
      H1     0.53398   -0.94011  -17.54956
       H    -2.94843   -1.17733  -13.89734
       O    -2.18915   -0.59260  -13.94328
      H1    -1.74912   -0.68622  -13.08723
       H     2.57476   -5.44608  -13.78998
       O     1.87949   -5.63644  -13.15458
      H1     1.13712   -5.99815  -13.67041
       H     0.80648   -0.28254  -14.84288
       O     1.41288    0.40967  -14.58878
      H1     0.99054    1.14719  -15.02181
       H    -3.41600   -5.47034  -14.11872
       O    -3.67750   -4.58521  -14.29576
      H1    -4.22106   -4.69196  -15.07673
       H    -0.95962   -5.39452  -14.83404
       O    -0.77330   -6.23952  -14.43927
      H1    -1.20848   -6.18823  -13.58370
       H    -2.03539   -6.99772  -11.82221
       O    -2.23874   -6.14561  -12.24268
      H1    -1.91101   -5.51290  -11.59964
       H    -4.49053   -3.59830  -13.17693
       O    -4.71712   -2.79775  -12.64064
      H1    -5.55298   -2.50706  -12.95798
       H    -0.70064   -3.16597  -15.51324
       O    -1.33573   -3.81856  -15.82148
      H1    -2.03313   -3.80184  -15.13053
       H    -1.35082   -3.89302  -10.22494
       O    -1.85080   -3.81614  -11.03395
      H1    -2.69807   -3.44492  -10.76273
       H    -2.81239   -7.46616  -16.53892
       O    -3.18215   -6.87779  -17.19457
      H1    -3.45937   -7.46878  -17.90512
       H    -0.39498   -3.39158  -12.11520
       O     0.44978   -3.28459  -12.57100
      H1     0.75742   -4.18525  -12.80467
       H    -1.55648   -0.74751  -15.65494
       O    -1.32650   -0.55294  -16.57286
      H1    -1.75638    0.32003  -16.69191
       H    -1.65768   -3.36278  -17.63991
       O    -1.74487   -3.00836  -18.53600
      H1    -2.47523   -2.35524  -18.47116
       H     2.25670   -6.26956  -16.97570
       O     1.65456   -5.74392  -16.38829
      H1     0.81477   -5.84747  -16.85847
       H    -5.22353   -4.58794  -17.63920
       O    -5.17155   -4.87408  -16.72021
      H1    -4.67127   -5.70887  -16.74138

