60
frame 3 | Written by MDAnalysis XYZWriter (release 2.4.3)
       H   -10.83833    0.10921   10.34136
       O   -10.98151    0.64841   11.13668
      H1   -11.59442    0.15912   11.71139
       H   -12.66373   -1.21444   15.59477
       O   -11.77216   -1.08774   15.26528
      H1   -11.46016   -1.98563   15.29273
       H   -13.73725    1.38431   17.00655
       O   -13.05030    0.91729   17.52744
      H1   -12.25801    1.28029   17.11181
       H   -11.74668    2.43382   11.65229
       O   -12.38139    3.15462   11.73689
      H1   -11.88743    3.89119   12.16546
       H   -14.47098   -2.12520   13.26418
       O   -14.47697   -2.28801   12.31564
      H1   -14.39938   -3.26500   12.27149
       H   -14.31049    0.51762   13.49955
       O   -15.12046    0.83401   13.93777
      H1   -15.74495    0.71841   13.23089
       H   -10.02230   -3.12526   11.29991
       O    -9.09060   -2.84654   11.43281
      H1    -8.64046   -3.62057   11.72945
       H   -10.95562    1.40604   15.99039
       O   -10.51596    1.52559   16.83059
      H1    -9.88231    0.76683   16.80303
       H   -13.32251   -1.00060   12.45567
       O   -12.84735   -0.25654   12.86519
      H1   -12.53280   -0.59523   13.71320
       H    -9.22522   -0.32218   14.04301
       O    -9.07063   -1.22199   13.74707
      H1    -8.97015   -1.14970   12.79382
       H   -12.39830    2.31216   13.36039
       O   -11.86388    2.13828   14.15690
      H1   -10.96773    1.99144   13.85604
       H   -12.67963    3.53465   15.31994
       O   -12.98096    4.20344   15.97454
      H1   -12.16457    4.20108   16.52398
       H   -14.50291   -0.94583   16.96928
       O   -14.55970   -1.42544   16.13894
      H1   -14.83599   -2.26998   16.49960
       H   -10.19844   -2.67080   14.05725
       O   -10.50830   -3.45759   14.55534
      H1   -10.91216   -4.02789   13.85753
       H   -14.93628    1.85462   10.20941
       O   -15.03331    2.74292   10.53741
      H1   -14.27499    2.81607   11.12956
       H   -11.08104   -3.39884    9.35028
       O   -11.58603   -3.47107   10.20993
      H1   -12.51393   -3.52724    9.87673
       H   -12.98464    1.57318    7.39391
       O   -12.17459    1.56475    7.88989
      H1   -12.43561    1.84607    8.76507
       H   -16.49758   -1.48409   12.55477
       O   -17.19652   -0.80133   12.54552
      H1   -17.32693   -0.70802   11.58943
       H   -14.27625   -0.79084    9.15915
       O   -14.57274    0.14935    9.16235
      H1   -14.89466    0.30611    8.25351
       H   -15.20462    1.54230   15.62815
       O   -15.30493    2.00154   16.47466
      H1   -16.07066    1.58269   16.89968

