60
frame 3 | Written by MDAnalysis XYZWriter (release 2.4.3)
       H    -1.42824    4.14031    2.44864
       O    -0.99342    4.20336    3.30490
      H1    -1.62718    4.60247    3.91592
       H    -6.34549   -0.60324    2.22797
       O    -5.49861   -1.08100    2.43026
      H1    -5.65285   -1.47567    3.29716
       H    -8.06328   -0.34084    0.99408
       O    -8.35771   -0.43327    1.89051
      H1    -8.07533    0.35476    2.29573
       H    -5.35477    5.64417   -1.26520
       O    -6.06351    5.23129   -1.82366
      H1    -5.62428    5.23439   -2.68125
       H    -8.55172    5.59988    4.57980
       O    -8.07842    4.93830    4.08888
      H1    -7.29521    5.45295    3.91278
       H    -4.55912    2.37123    2.65672
       O    -5.02662    3.09301    2.20639
      H1    -5.04779    2.87782    1.27646
       H    -7.26098    0.24047   -1.16549
       O    -6.81572    0.15020   -0.28905
      H1    -6.49978   -0.76963   -0.32203
       H    -8.49002    2.08295    4.08682
       O    -8.98243    1.71115    4.84054
      H1    -8.48823    2.14967    5.57002
       H    -1.31797    2.47488   -1.51459
       O    -1.94641    3.22427   -1.46268
      H1    -2.21091    3.30178   -0.53513
       H    -0.22759    0.66246    2.04491
       O    -0.25424    1.55692    1.72003
      H1    -0.71363    2.03971    2.40128
       H    -2.76005    4.54391    0.99305
       O    -2.44865    3.62702    1.14094
      H1    -3.22143    3.20205    1.49862
       H    -2.52640   -0.02868    0.67886
       O    -2.98941    0.20151   -0.13204
      H1    -3.39115    1.06925    0.04356
       H    -3.56814    6.97138    3.29132
       O    -3.93197    7.15224    4.15316
      H1    -4.81821    6.75455    4.10060
       H    -2.99570    6.54769    0.62438
       O    -2.84097    6.35824    1.55594
      H1    -1.85737    6.35280    1.63752
       H    -6.96023    2.61837    2.24659
       O    -7.77753    2.09054    2.22834
      H1    -8.04286    2.07608    1.31512
       H    -4.95066    2.92171   -1.21420
       O    -4.93062    2.36638   -0.38992
      H1    -5.49325    1.61345   -0.60420
       H    -9.39952    3.68462    1.12893
       O    -9.43915    4.47333    1.71418
      H1    -8.81866    4.30805    2.41771
       H    -2.74683    0.42821    3.13740
       O    -3.49507    0.82943    2.66545
      H1    -4.13315    0.09172    2.63922
       H    -4.56290    5.06417    5.00570
       O    -5.31237    4.91113    4.43623
      H1    -4.92579    4.63106    3.62842
       H    -7.89047    3.71991    7.05869
       O    -7.34549    3.29080    6.38160
      H1    -7.16790    3.96777    5.73060

