60
frame 3 | Written by MDAnalysis XYZWriter (release 2.4.3)
       H    13.92778  -10.26256   -6.67262
       O    13.53985  -11.14147   -6.75446
      H1    13.83423  -11.44854   -7.64418
       H    13.67470  -15.08128  -11.48327
       O    13.46726  -14.16368  -11.68441
      H1    14.29418  -13.72407  -11.54496
       H    15.64593  -12.59535   -7.75718
       O    16.18692  -11.98713   -7.23467
      H1    17.13984  -12.16754   -7.38635
       H    17.71546  -13.25063  -11.42677
       O    18.48356  -12.73276  -11.19848
      H1    18.23081  -11.79115  -11.25381
       H    14.03624  -12.47686   -9.83805
       O    13.38667  -11.83792   -9.55824
      H1    12.67530  -12.01411  -10.17490
       H    18.93681  -13.44102   -8.04402
       O    18.48873  -13.19654   -7.23702
      H1    19.05359  -12.49144   -6.90100
       H    15.27997  -11.14210   -9.51243
       O    15.86202  -10.53616   -9.97833
      H1    16.72944  -10.58038   -9.52814
       H    17.49048  -15.90645   -9.88814
       O    17.04033  -15.70839   -9.07470
      H1    17.74868  -15.72236   -8.39588
       H    14.94123  -10.21598  -13.67934
       O    14.68571  -11.15112  -13.76498
      H1    15.39135  -11.52831  -14.30954
       H    16.61848  -16.72474  -12.32022
       O    16.04145  -17.46170  -12.32500
      H1    16.46643  -18.07792  -11.72200
       H    15.92442  -12.10963  -11.01128
       O    15.85179  -12.64897  -11.81163
      H1    15.52226  -12.01214  -12.47346
       H    12.14630  -14.45380  -10.07138
       O    11.79589  -14.12990   -9.22863
      H1    11.19840  -14.84669   -9.00541
       H    17.15718  -15.16301  -13.81958
       O    17.72657  -15.01013  -13.03954
      H1    18.57985  -15.05760  -13.47800
       H    13.69911  -14.12301  -13.41588
       O    13.69948  -14.33191  -14.34562
      H1    14.39002  -14.99169  -14.38681
       H    14.34852  -14.19734   -8.61010
       O    15.13395  -13.76129   -8.97820
      H1    15.76753  -14.47099   -9.02287
       H    18.73890  -10.01704   -7.70602
       O    18.16616   -9.73803   -8.42586
      H1    18.43341   -8.81337   -8.56399
       H    13.05579  -11.23719  -12.77677
       O    12.16007  -10.93239  -12.57573
      H1    11.71683  -10.90031  -13.44303
       H    14.56658   -8.66606  -12.40325
       O    14.54767   -8.47318  -13.35641
      H1    15.46086   -8.14337  -13.51929
       H    13.69570   -8.59229  -10.56991
       O    14.58357   -8.30933  -10.56216
      H1    14.98577   -9.00783  -10.01689
       H    19.17736  -11.06928  -14.50967
       O    18.63918  -10.39487  -14.08541
      H1    19.22261  -10.07737  -13.35790

