60
frame 0 | Written by MDAnalysis XYZWriter (release 2.4.3)
       H     5.38883    5.54738   17.74721
       O     5.33724    5.92747   16.84046
      H1     4.36939    5.92278   16.69652
       H     5.36205    6.19298   13.25225
       O     5.01608    6.43699   12.38136
      H1     5.05544    5.53245   11.92367
       H     7.39230    8.17033   14.73315
       O     7.17536    8.10545   15.67082
      H1     6.58464    7.35472   15.75507
       H     2.96921   13.35455   14.77038
       O     3.10528   12.41902   14.61956
      H1     2.79780   12.10189   15.48159
       H     1.48059    7.77963   13.40190
       O     2.12925    7.97134   14.07378
      H1     2.57531    8.77857   13.74810
       H    10.15026   10.22004   17.91063
       O    10.35521    9.95749   18.79794
      H1     9.75021    9.24315   18.97622
       H     2.60040    6.79092   15.36499
       O     2.85546    6.07427   15.97395
      H1     2.83681    5.28047   15.43261
       H     1.12780    8.84660   15.27502
       O     0.70263    9.51081   15.82415
      H1     1.42498    9.96230   16.25201
       H    -0.67145   12.02788   18.02424
       O    -1.01857   11.32569   18.62267
      H1    -0.57837   10.52619   18.28341
       H     4.41802   10.05072   14.36046
       O     3.76748   10.14796   13.62698
      H1     3.28030   10.98043   13.87562
       H     6.85035    4.62481   14.42196
       O     5.93000    4.93037   14.44743
      H1     5.75379    5.04092   15.39519
       H     8.39565    7.40100   16.70785
       O     9.03819    7.20102   17.42883
      H1     9.79582    7.01779   16.89060
       H     6.19520   12.15142   13.35827
       O     5.83934   12.76689   14.02197
      H1     4.92871   12.46286   14.19314
       H     2.34437   11.54300   17.69953
       O     2.58285   11.14634   16.83090
      H1     3.55441   11.13441   16.89541
       H     6.02745    9.80949   15.87746
       O     5.11121    9.92371   16.02210
      H1     4.90379    9.13141   16.51381
       H     8.21364    2.59251   16.66055
       O     8.39601    3.51182   16.87454
      H1     7.48114    3.88421   16.87213
       H     5.08926    7.44044   17.64908
       O     4.46342    8.14434   17.82375
      H1     4.96066    8.57762   18.51589
       H     7.31077   13.76291   18.11127
       O     7.48060   13.67120   19.05627
      H1     7.04230   14.43613   19.43443
       H    -0.05901    7.39554   18.31597
       O    -0.21234    8.25675   18.72283
      H1    -0.64354    8.05291   19.53798
       H     1.24296    5.62894   17.59133
       O     0.29824    5.56773   17.82675
      H1     0.25246    4.77648   18.41543

