60
frame 3 | Written by MDAnalysis XYZWriter (release 2.4.3)
       H     3.17834    8.53410   11.24100
       O     2.94894    9.18853   10.59541
      H1     1.98068    9.17486   10.57546
       H    -0.84440   11.86626   10.73610
       O    -0.05398   12.36427   10.92795
      H1     0.39301   12.32484   10.07066
       H     4.17848    8.03639   13.12431
       O     4.25342    7.53185   12.30224
      H1     3.54239    6.89455   12.33204
       H     3.29695   14.34706   14.62894
       O     3.03498   14.89556   15.39796
      H1     3.26420   14.34084   16.16199
       H     1.13828   15.37502   14.93527
       O     0.66737   15.65346   14.15107
      H1     0.33855   16.56466   14.36190
       H     1.03662   15.21490    9.94209
       O     0.97851   15.53900   10.83407
      H1     0.37374   14.89675   11.27496
       H     2.51282    5.84900   14.77662
       O     1.64618    6.29237   14.68885
      H1     1.85926    7.19908   14.43461
       H    -0.69868    8.09414   12.13788
       O    -1.31558    7.45140   12.51274
      H1    -2.04400    7.96576   12.87611
       H    -1.08696   13.95016   12.24859
       O    -1.17369   13.87046   13.19567
      H1    -0.55616   14.51299   13.60164
       H     2.89278   14.88974   10.76953
       O     3.50248   14.29281   10.34027
      H1     4.28231   14.21295   10.92565
       H     1.84402    9.46316   14.10022
       O     2.44351    8.90101   14.58087
      H1     2.45822    9.26325   15.46399
       H     0.05924   11.81668   16.62276
       O     0.30544   12.61682   17.07542
      H1     0.34610   12.38096   18.00499
       H     4.88653   11.60291   13.68431
       O     5.73186   11.24275   13.99257
      H1     5.52959   10.28516   13.97981
       H     1.23441   11.83708   12.36604
       O     1.23030   11.46052   13.27172
      H1     0.36560   11.75389   13.65795
       H     3.65357   12.83724   12.69537
       O     3.59452   12.74740   13.65874
      H1     2.66207   12.49600   13.75651
       H    -2.33028   11.31629   14.47524
       O    -1.46581   11.70594   14.75986
      H1    -1.42833   12.52984   14.24194
       H     3.21114   10.55522   17.18764
       O     3.24879    9.64494   17.55644
      H1     4.17179    9.49432   17.77437
       H     3.84614   10.82716   10.96619
       O     4.24536   11.68287   11.08125
      H1     3.87264   12.16041   10.33398
       H     1.43336   11.73414    8.04525
       O     1.62831   12.18572    8.87695
      H1     2.13275   12.96152    8.56219
       H    -0.37787    9.51993   10.35753
       O     0.29465    9.20963   10.99008
      H1     0.48687   10.00303   11.52744

