60
frame 3 | Written by MDAnalysis XYZWriter (release 2.4.3)
       H    -9.02796   11.39170   10.36786
       O    -9.53644   11.55512    9.56599
      H1    -9.16876   10.90136    8.95646
       H    -9.00551   10.31340   13.06460
       O    -8.55534   10.60688   12.22147
      H1    -7.62526   10.41339   12.41208
       H    -0.84440   11.86626   10.73610
       O    -0.05398   12.36427   10.92795
      H1     0.39301   12.32484   10.07066
       H    -1.57567   10.98728    8.92632
       O    -1.56029   10.10061    9.29555
      H1    -2.51585    9.83702    9.25562
       H    -6.99519    9.40211    9.58083
       O    -6.67687   10.22773    9.18857
      H1    -6.01165   10.51488    9.87839
       H    -1.10252   15.71806   10.36315
       O    -1.69031   15.08280   10.82283
      H1    -2.51280   15.57526   10.92052
       H    -8.07059   15.06241   13.08050
       O    -7.70988   14.38145   13.67323
      H1    -7.14368   13.76983   13.17321
       H    -9.11701   11.00664    6.50989
       O    -9.19659   10.31424    7.18858
      H1    -8.28994   10.04042    7.28723
       H    -4.21154   16.57994   12.22856
       O    -5.03394   16.13886   12.05545
      H1    -5.49892   16.69323   11.44099
       H    -3.97150   13.49961    5.87612
       O    -3.75814   14.08636    6.60734
      H1    -3.51874   13.45736    7.31615
       H    -5.88881   11.31193    6.32434
       O    -6.33889   11.92664    6.92919
      H1    -6.53176   11.43850    7.72509
       H    -7.91620   15.22405    6.63228
       O    -7.90731   15.90805    7.29208
      H1    -8.28105   16.61612    6.78171
       H    -4.78783    9.13323    8.28051
       O    -4.06305    8.84256    8.87007
      H1    -3.68186    8.07977    8.40224
       H    -3.26562   12.86553    9.18072
       O    -2.37070   12.66216    8.82704
      H1    -1.96061   13.52546    8.84283
       H    -8.05213   17.01229   11.12618
       O    -7.42461   17.31625   10.47729
      H1    -7.44245   16.59517    9.84843
       H    -4.99876   12.25643   11.04383
       O    -4.81050   12.08746   10.13331
      H1    -5.35870   12.69472    9.60939
       H    -8.74386   14.85371    8.49160
       O    -8.86281   14.60381    9.43167
      H1    -9.07305   13.66257    9.39074
       H    -4.78312   15.41334    6.88235
       O    -5.28283   16.23410    7.01772
      H1    -6.19717   15.97821    7.22638
       H    -4.73332   15.37686   10.52225
       O    -4.49638   14.93002    9.69125
      H1    -4.86898   15.55600    9.03349
       H    -5.85946   11.71044   13.79472
       O    -5.60131   12.49229   13.29606
      H1    -4.77714   12.70649   13.73365

