60
frame 3 | Written by MDAnalysis XYZWriter (release 2.4.3)
       H   -18.25513   -4.04463   -9.77620
       O   -19.18933   -4.28694   -9.87951
      H1   -19.16008   -5.20248  -10.25441
       H   -13.78693   -1.58379   -5.73607
       O   -14.68965   -1.64971   -6.03567
      H1   -14.85462   -0.72128   -6.28345
       H   -14.66232   -4.90217   -3.58949
       O   -14.20454   -4.24520   -3.05947
      H1   -14.76250   -3.45368   -3.15704
       H   -17.13117    1.66759   -2.68246
       O   -16.50469    1.46507   -3.39465
      H1   -16.49386    2.29747   -3.90523
       H   -15.97819   -5.15829   -9.08882
       O   -16.62260   -4.67385   -9.64074
      H1   -16.39021   -4.90371  -10.54449
       H   -12.66040    0.35809   -9.44485
       O   -13.10544    0.09366   -8.60863
      H1   -12.41177    0.31818   -7.93697
       H   -14.89278    2.17876   -9.57106
       O   -15.21950    1.36443  -10.01020
      H1   -14.52778    0.73843   -9.77606
       H   -13.64947    0.59259   -3.56688
       O   -13.68051    0.59474   -4.51564
      H1   -13.03490   -0.06435   -4.76278
       H   -13.18558   -2.23820   -8.19767
       O   -13.21304   -2.85297   -8.93443
      H1   -14.02274   -2.65257   -9.46109
       H   -14.12869   -4.71827   -8.51880
       O   -14.42811   -5.55640   -8.16170
      H1   -14.07047   -5.67740   -7.27210
       H   -16.72952   -5.34245   -3.28163
       O   -17.36302   -4.68668   -2.97379
      H1   -17.05787   -3.84543   -3.33854
       H   -14.47273    1.40113   -6.57416
       O   -15.19050    0.92489   -7.01229
      H1   -14.88970    0.92639   -7.95650
       H   -15.38329   -2.12056   -4.54765
       O   -15.97277   -2.26762   -3.80827
      H1   -15.82608   -1.49118   -3.25135
       H   -18.16123   -2.37593   -7.16263
       O   -17.23917   -2.64332   -7.33348
      H1   -16.75147   -2.08127   -6.72499
       H   -17.23735   -4.12054   -6.28594
       O   -17.05397   -5.04980   -6.05524
      H1   -16.18175   -5.29536   -6.40504
       H   -11.36856   -2.04492   -6.08365
       O   -11.99389   -1.85208   -5.35045
      H1   -11.88294   -2.58239   -4.71654
       H   -16.04862   -2.49456  -10.63402
       O   -16.30971   -1.87201   -9.95379
      H1   -16.69999   -2.39359   -9.22524
       H   -16.56817    2.05171   -7.51160
       O   -17.27154    2.61340   -7.83027
      H1   -17.21800    3.36608   -7.23231
       H   -19.25089   -4.92288   -7.97572
       O   -19.16860   -5.65645   -7.35986
      H1   -18.29962   -5.47205   -6.94704
       H   -17.48594    0.31518   -4.49084
       O   -17.79171   -0.39880   -5.02674
      H1   -17.32780   -1.20828   -4.71945

