60
frame 0 | Written by MDAnalysis XYZWriter (release 2.4.3)
       H     8.53552    5.96490  -15.47809
       O     8.95597    6.06222  -16.35772
      H1     9.80346    6.52635  -16.18179
       H    11.72588   13.00374  -17.56027
       O    12.18929   13.53120  -18.20787
      H1    11.49756   14.18970  -18.42888
       H     8.27101   13.75903  -15.14420
       O     9.00593   14.13006  -14.62056
      H1     9.09592   13.39561  -14.02434
       H    10.43642   11.36864  -16.55800
       O    11.38369   11.51087  -16.39102
      H1    11.83657   10.67785  -16.49417
       H    13.58060   12.58342  -18.44455
       O    14.41922   12.11457  -18.47373
      H1    15.04932   12.78356  -18.14109
       H     9.24525    9.22381  -13.59466
       O    10.05153    9.71423  -13.74310
      H1    10.39970   10.00525  -12.89690
       H     8.51209    7.50791  -17.43706
       O     8.31428    8.20261  -18.09414
      H1     8.47411    7.78851  -18.93584
       H    11.96162   10.86686  -14.47263
       O    12.74578   10.69010  -13.92576
      H1    13.44007   10.90884  -14.55230
       H     8.35506   12.20988  -17.99666
       O     8.72145   11.49659  -17.46794
      H1     9.15555   10.93348  -18.14720
       H    14.41996   11.47587  -16.43669
       O    14.66321   10.72819  -15.84320
      H1    14.00495   10.03102  -15.93105
       H    11.10690    6.71319  -14.53578
       O    10.98376    7.53739  -15.05229
      H1    10.54163    8.19795  -14.48307
       H     5.67051   11.48990  -16.26137
       O     6.51566   11.80814  -15.87018
      H1     7.15023   11.66872  -16.58125
       H    10.17373   13.32960  -11.47971
       O     9.76491   12.80262  -12.14215
      H1    10.28480   12.01099  -12.16209
       H    13.30116   15.31597  -15.84721
       O    13.95351   15.88440  -16.34506
      H1    13.61244   15.87415  -17.26078
       H    11.25361   14.77967  -15.19919
       O    12.05313   14.53092  -14.72960
      H1    12.07646   13.56396  -14.66415
       H     4.88209   11.50126  -18.62172
       O     4.96247   12.43037  -18.57700
      H1     5.89959   12.52417  -18.36285
       H     5.28342    9.52547  -17.29537
       O     5.80725    9.51469  -18.10925
      H1     6.62532    9.05234  -17.87886
       H     6.29491   14.15424  -13.60117
       O     5.93914   14.13317  -14.50041
      H1     6.23585   13.30223  -14.89064
       H     7.04459    8.61062  -14.35257
       O     7.64745    8.58919  -13.60477
      H1     7.52602    7.75009  -13.15794
       H    13.39415    8.39857  -16.90688
       O    12.63394    8.93964  -16.62681
      H1    12.06419    8.36448  -16.13032

