60
frame 3 | Written by MDAnalysis XYZWriter (release 2.4.3)
       H     9.91400   -2.41705    4.29962
       O    10.07281   -1.71914    3.69766
      H1    11.01988   -1.80676    3.51960
       H    10.51696   -4.13918    5.92154
       O     9.82141   -3.94023    5.28744
      H1     9.85611   -4.62566    4.59798
       H     7.66991    2.73873   11.97517
       O     7.99683    1.82712   11.94855
      H1     7.87520    1.50889   11.04556
       H     6.10390   -1.82845    9.90581
       O     6.44630   -1.45314   10.74076
      H1     5.60737   -1.25299   11.20237
       H     6.30464   -0.89843    6.51624
       O     6.66960   -1.18187    5.69163
      H1     5.96302   -1.33570    5.08403
       H     7.26110    0.26060    9.82341
       O     7.72831    0.89933    9.31883
      H1     8.17895    0.40880    8.67052
       H    10.49827    0.27419   12.12931
       O    10.96157   -0.09352   11.36347
      H1    11.91965    0.01421   11.59085
       H     8.08355   -5.05815    8.10308
       O     8.41037   -5.81290    8.64221
      H1     9.22191   -5.51929    9.04807
       H    10.70225    1.04636   10.16073
       O    10.29534    1.75688    9.62650
      H1     9.32995    1.52371    9.67051
       H     8.54032   -3.74295    6.33958
       O     7.83261   -3.41059    6.91181
      H1     7.44736   -2.69917    6.39707
       H    10.53488    2.01136    4.63046
       O    10.72400    1.35765    3.93762
      H1    10.83982    0.53032    4.38513
       H    11.62290   -2.61260    9.28648
       O    12.50522   -2.45614    8.94957
      H1    12.88605   -1.80825    9.54264
       H    13.84314    1.77327    7.54197
       O    13.96041    0.82056    7.48683
      H1    13.16175    0.51318    7.02747
       H     8.64512   -1.07630    6.74485
       O     9.32582   -0.68758    7.27406
      H1     9.40714   -1.27151    8.04466
       H    13.17772   -1.11380    3.48021
       O    12.75553   -1.97474    3.65540
      H1    12.79130   -2.09839    4.64147
       H     4.55387   -0.23127    8.35929
       O     5.04989   -0.89867    7.89472
      H1     4.30590   -1.45691    7.56245
       H    11.08091   -1.04669    6.51962
       O    12.04158   -0.99115    6.54439
      H1    12.22376   -1.66107    7.25322
       H    11.11918    3.88334    5.57802
       O    10.20975    3.68973    5.41967
      H1     9.83530    3.47506    6.30197
       H     9.05552   -1.23822   10.06267
       O     9.41944   -2.00054    9.61711
      H1     8.79219   -2.71492    9.78473
       H     8.42221    4.26251    8.77016
       O     8.60514    3.71626    8.03530
      H1     9.20013    3.09604    8.46910

