60
frame 3 | Written by MDAnalysis XYZWriter (release 2.4.3)
       H    -5.69081   15.82459  -11.16242
       O    -5.83159   16.03705  -12.09052
      H1    -6.80119   16.20585  -12.14732
       H    -3.21582   12.44441  -11.33586
       O    -2.47681   12.18097  -11.92113
      H1    -1.76671   12.08829  -11.30830
       H    -1.62621   14.63919  -10.19795
       O    -1.94456   15.54110  -10.13912
      H1    -1.94266   15.87833  -11.05840
       H    -2.41337   12.39521  -15.06970
       O    -2.64213   13.13863  -14.53190
      H1    -2.79841   12.74830  -13.68823
       H    -3.45698   16.89273  -15.14585
       O    -2.58198   16.57613  -14.91842
      H1    -2.56438   16.43191  -13.96623
       H     1.49667   14.44013   -7.61601
       O     1.11631   14.25628   -6.73447
      H1     1.05271   15.12181   -6.32601
       H    -2.49836   11.24296   -6.83177
       O    -3.18608   11.86242   -6.61867
      H1    -2.76815   12.68713   -6.86752
       H     0.04445   12.64314   -9.64569
       O    -0.89275   12.57037   -9.55598
      H1    -1.05389   12.63045   -8.60098
       H     2.36057   16.35742  -11.35996
       O     2.43255   16.94122  -10.60727
      H1     1.88765   17.68383  -10.90674
       H    -0.00330   19.37646  -11.80641
       O     0.43240   18.57547  -12.13781
      H1     0.45961   18.78090  -13.08421
       H     1.02146   16.74829   -9.51208
       O     0.38170   16.90800   -8.81161
      H1    -0.41671   16.43917   -9.07568
       H    -5.19009   15.92136   -7.15902
       O    -5.14348   16.66885   -6.54349
      H1    -5.24398   17.40424   -7.11886
       H    -3.99830   16.08696   -9.68423
       O    -4.89987   16.00712   -9.40321
      H1    -4.91976   15.16250   -8.93395
       H    -3.93120   18.19160  -11.74337
       O    -4.52441   18.41718  -12.45990
      H1    -5.06693   17.61784  -12.51459
       H    -2.10706   18.14908   -9.54612
       O    -2.44811   18.55960  -10.33172
      H1    -1.96876   19.38500  -10.32586
       H    -0.74793   17.03330  -12.13868
       O    -1.37093   16.40165  -12.47537
      H1    -0.77914   15.73292  -12.84147
       H    -3.47377   16.81335   -6.72626
       O    -2.57789   16.75066   -7.01918
      H1    -2.17538   17.58649   -6.69545
       H    -5.15990   17.96351   -9.14956
       O    -4.75479   18.63153   -8.56578
      H1    -4.00349   18.93441   -9.09138
       H    -0.99249   13.82664  -13.99268
       O    -0.24069   14.19614  -13.53180
      H1     0.46741   14.12278  -14.14427
       H    -1.75502   15.06661   -7.25191
       O    -1.55163   14.10281   -7.34527
      H1    -0.60402   14.10775   -7.35194

