60
frame 3 | Written by MDAnalysis XYZWriter (release 2.4.3)
       H    -6.27094  -17.76340    0.78118
       O    -5.54077  -18.19655    1.23409
      H1    -4.89655  -18.27894    0.49169
       H    -8.85848  -16.25571    7.25253
       O    -9.41236  -16.92417    6.87425
      H1    -9.99144  -16.42853    6.29710
       H   -14.46198  -17.31083    0.80102
       O   -13.85809  -18.01894    0.52511
      H1   -14.19358  -18.77816    1.00362
       H    -6.70917  -19.04909    9.24519
       O    -7.18769  -18.51663    8.61077
      H1    -8.09337  -18.78477    8.73822
       H   -10.73437  -17.10343    8.18386
       O   -11.46095  -17.27747    8.81587
      H1   -11.40196  -16.54924    9.46537
       H   -13.83029  -17.80012    4.86785
       O   -13.59271  -18.12875    5.74717
      H1   -14.40052  -18.11229    6.24496
       H   -12.45198  -13.88097    0.66538
       O   -12.38439  -14.83048    0.59014
      H1   -13.10583  -15.16230    1.16273
       H    -8.67929  -14.84542    2.23149
       O    -8.51834  -14.03248    2.68327
      H1    -7.59551  -13.83620    2.42390
       H   -13.14021  -17.33431    2.21379
       O   -12.93114  -17.17001    3.15204
      H1   -12.46752  -16.30757    3.09152
       H   -10.83810  -14.49864    3.89427
       O   -11.48302  -14.73012    3.22858
      H1   -10.90460  -15.05038    2.51368
       H    -8.88803  -19.05964    2.93283
       O    -9.62737  -18.46310    3.13249
      H1    -9.92763  -18.75693    3.98132
       H    -9.72094  -16.35267   -2.14186
       O    -8.78435  -16.36319   -2.27878
      H1    -8.65880  -16.82480   -3.12365
       H    -9.12456  -14.61768    4.43343
       O    -9.61248  -14.34031    5.19229
      H1    -9.64460  -13.39760    5.16549
       H    -8.41185  -16.80086    0.78896
       O    -7.73527  -17.14374    0.16552
      H1    -8.10649  -16.87687   -0.69163
       H    -6.38515  -15.90796    5.55397
       O    -7.12423  -16.45946    5.24189
      H1    -7.76820  -16.49463    5.96863
       H    -2.67815  -18.27197    5.26153
       O    -3.28996  -17.58839    5.56834
      H1    -4.03321  -18.11563    5.90507
       H    -5.25882  -15.18900    1.53371
       O    -4.94957  -14.74206    0.72238
      H1    -5.61823  -15.03022    0.09776
       H    -5.64354  -16.84548    2.51363
       O    -5.90327  -15.97145    2.82635
      H1    -6.37973  -16.29675    3.62898
       H   -10.33107  -16.49848    0.94495
       O    -9.73172  -16.18113    1.63727
      H1    -9.81087  -16.88912    2.29754
       H   -10.07748  -17.99148   -0.40810
       O   -10.84519  -17.43694   -0.46185
      H1   -11.49940  -17.94118    0.04525

