60
frame 0 | Written by MDAnalysis XYZWriter (release 2.4.3)
       H   -16.34455    9.36143   -0.71632
       O   -15.96116   10.18715   -0.37773
      H1   -15.43303   10.54187   -1.11434
       H   -11.70433    7.10945    6.20323
       O   -10.88385    7.09374    5.69766
      H1   -11.26017    7.23223    4.79048
       H   -14.92374    6.36929    3.68847
       O   -15.11909    6.78272    2.85585
      H1   -15.79280    6.22404    2.50198
       H   -14.55739   14.45161    3.19266
       O   -15.00040   14.18103    2.38146
      H1   -15.47476   13.39396    2.68342
       H   -11.03518    9.42106    5.90655
       O   -10.13604    9.81583    5.99997
      H1    -9.53383    9.16757    5.67591
       H   -12.52777    7.88378    3.24436
       O   -11.66384    7.46184    3.00916
      H1   -11.93099    6.70535    2.49142
       H   -10.14025   10.94119    3.17065
       O    -9.84570   11.54634    3.88363
      H1    -9.66474   10.95780    4.63807
       H   -16.17071   11.31601    3.57669
       O   -16.27518   12.20041    3.91421
      H1   -17.22365   12.37616    3.80654
       H    -9.66349    9.44714    1.45524
       O    -9.67583    9.16697    2.36224
      H1   -10.54444    8.67404    2.41010
       H   -18.28417    7.78400    3.86837
       O   -17.85346    8.50690    4.31674
      H1   -17.38556    8.00662    5.02634
       H   -11.58754   11.86697    4.34091
       O   -12.55645   11.81226    4.33367
      H1   -12.85628   12.65127    4.69513
       H   -14.51769    7.37920    1.45711
       O   -14.16076    7.81217    0.64002
      H1   -14.68924    8.61014    0.53841
       H   -13.17970    9.50187    7.72775
       O   -12.77872    9.82738    6.89218
      H1   -13.50877    9.88899    6.25265
       H   -18.46126   10.09889    5.16558
       O   -18.61189   10.90762    5.62886
      H1   -18.63347   11.51719    4.88001
       H   -12.04954   10.04330    0.65654
       O   -12.04529    9.27861    0.09118
      H1   -12.78499    8.77107    0.40635
       H   -12.62500   11.59991    2.54061
       O   -12.38484   11.45077    1.61095
      H1   -11.75647   12.16564    1.46685
       H   -15.76960   11.46221    6.94152
       O   -15.19142   12.22766    6.82414
      H1   -15.26779   12.45616    5.88146
       H   -14.42382    9.21391    3.35824
       O   -13.71202    9.20651    4.00598
      H1   -13.39739   10.14683    3.94865
       H   -15.63377    8.71547    6.67107
       O   -15.20132    7.93462    6.30970
      H1   -14.62245    8.24578    5.61651
       H   -16.85536    9.18527    3.09633
       O   -16.14156    9.64135    2.64863
      H1   -16.42735    9.86914    1.76072

