60
frame 0 | Written by MDAnalysis XYZWriter (release 2.4.3)
       H    -1.77808    0.46496  -14.07849
       O    -1.47146   -0.04014  -13.27592
      H1    -2.29822    0.06305  -12.73090
       H    -1.53849   -3.08477  -13.67188
       O    -2.14277   -2.49417  -14.10442
      H1    -1.71669   -1.63223  -13.84486
       H    -4.08414    1.83280  -18.37625
       O    -3.25622    2.17867  -18.02229
      H1    -2.71988    1.57376  -18.50620
       H    -4.30060    4.10436  -19.72556
       O    -3.70366    4.64120  -19.26224
      H1    -3.25995    3.99459  -18.67909
       H    -2.29830    3.69246  -14.08343
       O    -3.22070    3.57310  -13.95825
      H1    -3.25102    3.42561  -12.97698
       H    -4.91380    1.80285  -14.66154
       O    -5.73769    1.33965  -14.49054
      H1    -6.34959    1.45920  -15.24733
       H     0.74710    3.50734  -13.33669
       O     1.31801    3.43560  -12.50564
      H1     1.03654    2.59567  -12.20013
       H    -4.51165   -1.43723  -17.39140
       O    -4.38766   -1.30642  -18.33197
      H1    -5.22745   -1.52675  -18.74894
       H     2.52867    1.09923  -14.77446
       O     1.87487    1.68381  -15.14785
      H1     2.06612    2.48320  -14.55701
       H    -0.82205    4.43749  -18.37216
       O    -1.47447    4.55728  -17.63526
      H1    -1.60347    3.62893  -17.37506
       H     2.10204    0.32411  -17.64764
       O     2.87641    1.00975  -17.51094
      H1     2.44046    1.58972  -16.91434
       H    -0.64295   -2.82976  -16.87560
       O    -1.32126   -3.39933  -16.52936
      H1    -1.63996   -2.84818  -15.79061
       H    -0.59388    0.48615  -19.25090
       O    -1.45873    0.09294  -19.05031
      H1    -1.35674   -0.86710  -19.31206
       H    -3.12943    1.62422  -16.49317
       O    -2.90613    1.34467  -15.52008
      H1    -3.12933    2.20489  -15.10960
       H     0.30385    5.12497  -16.80920
       O     1.07680    4.84482  -16.28408
      H1     1.56470    5.66594  -16.18853
       H    -0.10240    4.12961  -15.20299
       O    -0.47823    3.87552  -14.34835
      H1    -0.44864    4.71061  -13.80585
       H     0.01632    1.84470  -15.84241
       O    -0.58181    2.03513  -16.61139
      H1    -1.39814    1.60523  -16.24727
       H    -0.09825    0.09517  -16.48988
       O     0.27060   -0.72545  -16.83300
      H1    -0.27483   -0.96005  -17.61621
       H     1.34817    4.14806  -19.08048
       O     0.66959    4.78460  -19.33615
      H1     1.18580    5.61156  -19.37037
       H     1.50843   -3.04671  -14.68000
       O     1.43282   -2.32053  -13.97563
      H1     1.23503   -1.58943  -14.56353

