60
frame 3 | Written by MDAnalysis XYZWriter (release 2.4.3)
       H    -4.30522   -6.38255   10.67284
       O    -4.62309   -5.73523   11.29755
      H1    -5.30584   -6.24695   11.76531
       H    -8.23726   -8.13076   12.81114
       O    -9.03530   -8.59436   12.97242
      H1    -8.86483   -8.94883   13.84772
       H    -6.56534   -3.06426   14.97708
       O    -5.69736   -3.33183   14.61140
      H1    -5.97234   -4.01198   14.01157
       H    -6.20210   -8.36267   12.62989
       O    -6.75031   -7.73858   12.16220
      H1    -6.75266   -8.13934   11.25899
       H    -8.07397   -5.60093   17.93129
       O    -8.81486   -5.48941   18.53686
      H1    -9.24453   -4.69755   18.18802
       H    -7.30001   -5.06075   11.54713
       O    -7.66070   -4.87788   12.43230
      H1    -8.47135   -5.39663   12.49477
       H    -5.47402   -7.57972   16.35065
       O    -5.70790   -8.51891   16.29094
      H1    -5.47363   -8.72490   15.37903
       H    -6.87356   -5.78446   15.45950
       O    -6.48263   -6.22507   14.71661
      H1    -6.95173   -5.92435   13.94062
       H   -10.14564   -8.27240   18.76750
       O   -10.03010   -7.91898   17.89583
      H1    -9.70517   -7.02868   18.05845
       H    -5.95556   -4.70436   17.47456
       O    -6.40045   -5.57646   17.47130
      H1    -5.87234   -6.09351   18.11926
       H   -10.19844   -2.67080   14.05725
       O   -10.50830   -3.45759   14.55534
      H1   -10.91216   -4.02789   13.85753
       H    -7.56663   -2.75712   18.05001
       O    -7.61158   -2.34112   18.91635
      H1    -6.80129   -2.59500   19.36830
       H    -4.23262   -3.04348   17.97336
       O    -4.95166   -3.31071   17.38812
      H1    -4.91789   -2.72784   16.63263
       H    -2.80077   -8.74452   17.30788
       O    -2.79651   -8.53997   16.34035
      H1    -3.72224   -8.69111   16.05868
       H   -10.73981   -5.96692   13.85989
       O   -10.14585   -6.24940   13.17891
      H1    -9.86563   -7.11149   13.50785
       H    -8.28272   -1.91774   16.43137
       O    -8.10381   -2.84964   16.24425
      H1    -8.80153   -3.09717   15.65424
       H    -9.41811   -8.98570   16.18257
       O    -8.64062   -9.17412   15.62868
      H1    -7.87261   -8.78008   16.06757
       H    -4.10842   -4.66935   15.73994
       O    -3.66030   -5.31210   15.21346
      H1    -4.36269   -5.70663   14.67163
       H    -2.68226   -5.60001   17.00843
       O    -2.22055   -5.68211   17.86887
      H1    -2.13664   -4.78329   18.18495
       H    -3.89548   -8.36567   13.33672
       O    -4.72939   -8.69947   13.72276
      H1    -4.63980   -9.64220   13.67465

