60
frame 3 | Written by MDAnalysis XYZWriter (release 2.4.3)
       H    -4.30522   -6.38255   10.67284
       O    -4.62309   -5.73523   11.29755
      H1    -5.30584   -6.24695   11.76531
       H    -8.23726   -8.13076   12.81114
       O    -9.03530   -8.59436   12.97242
      H1    -8.86483   -8.94883   13.84772
       H    -6.56534   -3.06426   14.97708
       O    -5.69736   -3.33183   14.61140
      H1    -5.97234   -4.01198   14.01157
       H    -4.90600  -10.71731   10.47183
       O    -4.65540   -9.80029   10.76156
      H1    -3.72072   -9.88758   10.96798
       H    -6.20210   -8.36267   12.62989
       O    -6.75031   -7.73858   12.16220
      H1    -6.75266   -8.13934   11.25899
       H   -10.02230   -3.12526   11.29991
       O    -9.09060   -2.84654   11.43281
      H1    -8.64046   -3.62057   11.72945
       H    -7.30001   -5.06075   11.54713
       O    -7.66070   -4.87788   12.43230
      H1    -8.47135   -5.39663   12.49477
       H    -2.02345   -8.36874   11.85382
       O    -1.99607   -8.88718   11.04641
      H1    -1.18396   -9.39698   11.17772
       H    -6.87356   -5.78446   15.45950
       O    -6.48263   -6.22507   14.71661
      H1    -6.95173   -5.92435   13.94062
       H    -5.94183   -2.88943   10.62749
       O    -5.45740   -2.06875   10.57878
      H1    -4.83597   -2.11612   11.31515
       H    -7.67851   -3.47100    9.35143
       O    -7.51434   -4.38321    9.64827
      H1    -7.04481   -4.78098    8.90951
       H    -8.56075   -5.65987   10.18832
       O    -8.89364   -6.57652   10.24304
      H1    -9.76253   -6.51742   10.63376
       H    -7.42970   -8.97901    9.26218
       O    -6.74349   -8.30803    9.16590
      H1    -5.91227   -8.74378    9.44006
       H    -0.79921   -3.83501   12.91705
       O    -1.58983   -3.85099   13.49252
      H1    -1.72765   -4.80046   13.66304
       H    -1.87511   -6.89224   13.55969
       O    -2.63583   -7.16564   13.02470
      H1    -3.13793   -6.34131   13.00841
       H    -2.68278   -7.74210   10.11477
       O    -3.21551   -7.12603    9.58754
      H1    -2.70774   -6.31478    9.69813
       H    -2.79370   -4.27215   10.51080
       O    -2.40091   -4.48735    9.67959
      H1    -3.14705   -4.12279    9.15613
       H    -6.51395   -6.85551    8.29719
       O    -6.38402   -6.08543    7.72710
      H1    -7.19000   -6.10425    7.15017
       H    -4.10842   -4.66935   15.73994
       O    -3.66030   -5.31210   15.21346
      H1    -4.36269   -5.70663   14.67163
       H    -3.89548   -8.36567   13.33672
       O    -4.72939   -8.69947   13.72276
      H1    -4.63980   -9.64220   13.67465

