60
frame 3 | Written by MDAnalysis XYZWriter (release 2.4.3)
       H   -18.25513   -4.04463   -9.77620
       O   -19.18933   -4.28694   -9.87951
      H1   -19.16008   -5.20248  -10.25441
       H   -17.58460  -13.60575  -13.70887
       O   -17.57216  -12.78127  -13.16327
      H1   -18.39953  -12.84351  -12.67818
       H   -17.67031   -6.83191  -15.07377
       O   -17.08085   -6.92282  -14.30243
      H1   -17.65618   -7.31003  -13.63468
       H   -14.57376  -13.36394  -14.65362
       O   -14.08588  -12.99921  -13.89858
      H1   -14.24662  -13.69833  -13.21667
       H   -15.54964   -9.16651  -10.58195
       O   -16.39181   -9.65165  -10.50339
      H1   -16.15434  -10.52487  -10.71462
       H   -15.97819   -5.15829   -9.08882
       O   -16.62260   -4.67385   -9.64074
      H1   -16.39021   -4.90371  -10.54449
       H   -17.44700   -8.97963  -12.10748
       O   -18.29415   -8.61867  -12.34798
      H1   -18.60887   -8.23767  -11.52337
       H   -18.40840  -13.40230   -9.98004
       O   -17.92239  -13.78083   -9.25500
      H1   -17.47624  -14.51887   -9.67679
       H   -14.81964  -11.81110  -11.61008
       O   -15.66378  -12.03756  -11.19381
      H1   -16.13481  -12.48453  -11.90118
       H   -17.45713  -10.50461   -6.94791
       O   -18.32689  -10.74885   -6.51750
      H1   -18.35493  -10.11534   -5.80613
       H   -15.04128  -10.23544   -7.70777
       O   -15.91662   -9.84520   -7.65691
      H1   -16.15309   -9.67854   -8.57832
       H   -17.37341   -5.07753  -14.29467
       O   -17.78499   -4.21945  -14.15042
      H1   -18.63860   -4.27104  -14.55520
       H   -13.15677  -10.00159  -17.65054
       O   -14.05283   -9.84942  -17.34299
      H1   -14.01163   -9.69550  -16.41359
       H   -14.48482   -7.24849   -9.22975
       O   -14.65929   -7.56293  -10.12746
      H1   -14.31669   -6.84719  -10.68029
       H   -15.12729   -7.43275  -14.09669
       O   -14.18106   -7.41456  -14.26974
      H1   -13.97196   -8.34364  -14.38029
       H   -12.06360  -12.01218  -10.15420
       O   -12.78761  -11.50669  -10.53106
      H1   -12.35160  -10.88235  -11.13323
       H   -12.50541   -5.56054  -11.83262
       O   -13.43561   -5.78890  -11.96078
      H1   -13.49996   -6.26685  -12.79521
       H   -14.94070  -10.73492  -14.46723
       O   -14.30826  -10.01566  -14.33648
      H1   -13.46396  -10.47575  -14.18945
       H   -15.06638  -12.89895   -9.76904
       O   -14.65912  -13.35834   -9.02938
      H1   -15.37915  -13.76362   -8.59153
       H   -17.57308  -10.87502  -16.28468
       O   -16.83931  -10.23743  -16.19082
      H1   -17.22500   -9.50273  -15.72643

