60
frame 3 | Written by MDAnalysis XYZWriter (release 2.4.3)
       H   -15.01409   10.75099   12.63871
       O   -15.90726   10.57806   12.30800
      H1   -16.18204    9.81673   12.80412
       H   -14.01389    7.51633   18.35267
       O   -14.19654    7.65118   17.38830
      H1   -15.02430    7.21987   17.17852
       H   -11.04456    9.64829   17.23651
       O   -11.01036   10.56352   16.96871
      H1   -11.87449   10.93479   17.15001
       H   -17.83054    9.05881   15.26825
       O   -17.48084    9.72997   15.84844
      H1   -16.51245    9.66468   15.61541
       H   -11.59935    8.04323   14.38819
       O   -11.53718    8.59724   13.61542
      H1   -12.40113    9.02975   13.55879
       H   -17.21528   13.05437   13.97539
       O   -17.25318   13.18208   13.00823
      H1   -16.33146   12.99994   12.79669
       H   -17.32543   13.27089   16.32744
       O   -17.11194   12.50616   15.75665
      H1   -17.65024   11.79435   16.14216
       H   -12.91788    6.80999   16.10723
       O   -12.06569    6.79790   15.63398
      H1   -12.02355    5.90718   15.29853
       H   -13.45373   11.57559   19.23101
       O   -13.31331   11.80527   18.29105
      H1   -14.03116   12.45952   18.16472
       H   -15.22632   12.48805   15.67360
       O   -14.26879   12.45003   15.48649
      H1   -13.84090   13.02873   16.11901
       H   -13.99686   12.88630   13.54029
       O   -14.52289   13.42899   12.94860
      H1   -14.07381   13.29410   12.10701
       H   -12.87531   11.24954   13.93398
       O   -13.46920   10.56486   13.56788
      H1   -14.18756   10.50148   14.21132
       H   -16.25677    7.79933   13.09123
       O   -15.91802    8.23762   13.87706
      H1   -14.98423    8.37692   13.60761
       H   -10.93212    7.25930   18.62174
       O   -10.98711    7.97600   17.96672
      H1   -11.37556    7.52479   17.22441
       H   -17.39097    8.13487   18.61030
       O   -17.75701    9.01427   18.56679
      H1   -17.79082    9.18382   17.63708
       H   -18.46426   12.01293   13.25462
       O   -19.16507   11.39202   13.46083
      H1   -18.63874   10.62862   13.66111
       H   -16.52614    5.94331   15.81718
       O   -16.74858    6.67348   16.44612
      H1   -16.57735    7.43848   15.94157
       H   -16.17451   12.52087   18.41777
       O   -15.58418   13.17432   18.02836
      H1   -16.02776   14.00581   18.21521
       H   -11.04283   13.71501   15.32610
       O   -11.28833   12.84628   14.96480
      H1   -10.85246   12.79653   14.11561
       H   -14.59994    9.33941   16.69893
       O   -14.77640    9.84569   15.87043
      H1   -14.47370   10.71994   16.10076

