60
frame 3 | Written by MDAnalysis XYZWriter (release 2.4.3)
       H   -12.24223   18.11351   -2.69079
       O   -11.36608   17.66819   -2.71000
      H1   -11.62815   16.84376   -3.17400
       H   -18.68695   16.35429    3.98249
       O   -17.87020   16.55170    4.45769
      H1   -17.75624   17.50215    4.43920
       H   -14.03671   19.17168   -4.86117
       O   -14.80282   18.58784   -4.76860
      H1   -14.58561   17.93444   -5.44184
       H   -14.53121   15.86340   -6.08633
       O   -13.94785   16.55671   -6.41769
      H1   -13.80765   16.27668   -7.33766
       H   -17.92675   10.65991   -2.67566
       O   -17.44718   11.06376   -1.93537
      H1   -16.55073   11.18318   -2.24595
       H   -15.93991   17.92084    1.50314
       O   -15.27590   17.22396    1.59012
      H1   -14.92254   17.12643    0.68040
       H   -12.01563   13.04558   -2.41233
       O   -12.80986   13.08212   -2.97992
      H1   -13.56470   12.95524   -2.43054
       H   -15.52094   12.85467   -2.02539
       O   -15.02672   12.00554   -2.06641
      H1   -14.84918   11.74783   -1.14760
       H   -15.77327   18.53235   -3.42161
       O   -16.04893   18.81198   -2.54064
      H1   -15.95813   17.94221   -2.10565
       H   -18.45006   12.91784    3.04399
       O   -19.32700   13.05382    2.63978
      H1   -19.15199   13.51928    1.81547
       H   -13.43419   17.59287   -1.07360
       O   -13.65733   16.69113   -0.85889
      H1   -12.86241   16.23289   -0.62993
       H   -16.42627   15.38122    3.54131
       O   -15.63006   14.97824    3.16207
      H1   -15.35927   15.65273    2.49458
       H   -17.23588   13.90839   -2.56942
       O   -16.35538   14.24781   -2.72959
      H1   -16.31257   15.01478   -2.17322
       H   -18.31052   12.38195   -1.65323
       O   -18.61962   13.23925   -1.42027
      H1   -19.52895   13.15358   -1.09504
       H   -16.27468   15.11157   -5.52143
       O   -15.50126   14.63327   -5.24362
      H1   -15.72660   14.25090   -4.38006
       H   -15.54407   18.71609    3.59760
       O   -14.94040   18.12016    4.11823
      H1   -14.53646   17.57269    3.42597
       H   -18.01846   14.12432   -0.01743
       O   -17.53174   14.59793    0.66424
      H1   -16.91912   13.94350    1.05394
       H   -13.71351   15.97563   -2.56716
       O   -13.62234   15.76134   -3.52170
      H1   -14.49947   15.44399   -3.75414
       H   -17.57984   16.94862   -1.21515
       O   -16.65305   16.68267   -1.07769
      H1   -16.66351   16.33195   -0.17669
       H   -15.99811   11.90681    1.06632
       O   -15.71500   12.64512    0.52088
      H1   -14.90008   12.88362    0.93619

