60
frame 3 | Written by MDAnalysis XYZWriter (release 2.4.3)
       H     4.93781   14.49545  -11.93767
       O     4.29420   14.28642  -11.27878
      H1     3.77878   13.59387  -11.72790
       H     3.80691   14.70158   -9.42348
       O     3.29292   14.48029   -8.63439
      H1     3.87036   13.89345   -8.11976
       H     4.35986   17.58414  -11.37288
       O     5.14006   17.80836  -11.86963
      H1     5.70233   17.10654  -11.62437
       H     9.63748   15.65924  -10.38088
       O    10.06318   15.37127  -11.19354
      H1    11.00349   15.26672  -10.92184
       H     8.27259   11.36846  -11.58483
       O     8.54615   10.90789  -12.39411
      H1     9.16413   11.48700  -12.87176
       H     8.32687   13.42038  -16.26233
       O     8.48313   13.08873  -15.36229
      H1     8.86200   13.84816  -14.88859
       H     9.45013   13.69411  -10.70356
       O     8.87913   12.94450  -10.45128
      H1     8.05917   13.39926  -10.17416
       H     5.93493   12.50072   -9.24827
       O     6.18488   13.37190   -9.63932
      H1     5.41191   13.48077  -10.20399
       H     6.94877   15.32677  -11.52932
       O     7.20036   16.11757  -11.01458
      H1     7.16881   15.83039  -10.06753
       H     8.34822   15.48791  -13.81892
       O     9.23887   15.17360  -13.80981
      H1     9.34007   14.82227  -12.92144
       H     6.65407   10.18424   -8.88862
       O     5.80137   10.65505   -8.89851
      H1     5.52243   10.58854   -9.85166
       H     5.39519   11.22943  -13.99592
       O     5.94193   11.36091  -13.19605
      H1     6.83701   11.07789  -13.42080
       H     5.22988   16.01735   -8.09279
       O     6.08259   15.87564   -8.50046
      H1     6.11554   14.90960   -8.57748
       H     6.52031   11.25972  -17.07021
       O     6.44203   10.35266  -17.26644
      H1     7.01346    9.88004  -16.63789
       H     6.58517   13.11204  -12.80846
       O     6.49941   14.06686  -13.00049
      H1     6.09429   14.13574  -13.86181
       H     6.86136   17.08909  -15.45041
       O     7.05478   16.87526  -14.52443
      H1     7.23428   17.77391  -14.20336
       H     2.33478   12.54093  -12.68313
       O     2.92133   12.99991  -13.31711
      H1     3.16184   12.28446  -13.92250
       H     3.56407   10.64898  -11.45660
       O     4.26574   11.18944  -11.06887
      H1     4.95704   11.31278  -11.71850
       H     6.06314    9.24014  -13.00723
       O     6.09019    8.26491  -13.09724
      H1     6.46973    8.00379  -12.25654
       H     3.54015   11.25329  -16.09291
       O     3.68537   10.97408  -15.16932
      H1     3.70943   10.02534  -15.23517

