60
frame 7 | Written by MDAnalysis XYZWriter (release 2.4.3)
       H   -13.37979   -0.08346  -16.02306
       O   -14.30337   -0.33037  -16.22766
      H1   -14.76426    0.47847  -15.95383
       H   -17.80695    6.57306  -17.04611
       O   -17.33554    5.80394  -17.36844
      H1   -16.46133    5.89588  -17.02115
       H   -18.99555   -0.03101  -15.91031
       O   -19.09617   -0.66459  -15.23239
      H1   -18.53102   -1.43800  -15.54625
       H   -18.53351    2.00545  -17.23304
       O   -18.77753    1.15389  -17.57053
      H1   -18.32883    0.97775  -18.37724
       H   -17.97891   10.81964  -19.31994
       O   -18.16910   10.40085  -18.50482
      H1   -17.68253    9.59280  -18.58535
       H   -17.84497   10.50453  -13.73693
       O   -17.18234   10.01462  -13.22253
      H1   -17.22780   10.14017  -12.21087
       H   -16.50199    6.32987  -12.95462
       O   -15.94836    6.05318  -12.17769
      H1   -15.11457    6.62591  -12.29840
       H   -13.60635    1.73162  -18.98576
       O   -13.41189    0.86699  -19.27741
      H1   -13.94514    0.27588  -18.69658
       H   -17.74422    8.11200  -15.63668
       O   -17.49977    8.64355  -16.45509
      H1   -16.52136    8.85888  -16.30673
       H   -17.61421    3.41738  -12.19295
       O   -17.94570    3.16333  -13.08447
      H1   -17.57141    2.19481  -13.08975
       H   -14.62840   10.26283  -15.73534
       O   -14.88363    9.41496  -15.34136
      H1   -15.61126    9.65606  -14.76496
       H   -14.82747    3.42647  -19.16578
       O   -13.96978    3.36791  -18.88546
      H1   -13.43950    3.99018  -19.41980
       H   -15.43893    4.40950  -12.65483
       O   -14.69897    3.84643  -12.89269
      H1   -14.83986    2.96824  -12.45240
       H   -18.00810   12.04442  -15.67524
       O   -17.29941   12.26955  -16.32584
      H1   -17.54529   11.79328  -17.15680
       H   -14.21833    4.84109  -17.53635
       O   -14.32290    5.77872  -17.24724
      H1   -13.78612    5.99675  -16.45508
       H   -18.48217    3.36930  -15.47767
       O   -17.87322    3.30720  -16.27025
      H1   -17.67659    4.14374  -16.71153
       H   -12.67920    7.37457  -14.84635
       O   -12.31081    6.55766  -15.30067
      H1   -11.66445    6.31562  -14.62910
       H   -16.41599    2.22218  -15.87469
       O   -15.72017    1.88631  -15.28194
      H1   -15.54657    2.52594  -14.60759
       H   -13.90637    8.37021  -11.89436
       O   -14.04267    8.04522  -12.77809
      H1   -14.53012    8.69026  -13.28659
       H   -18.75914    6.86796  -13.37054
       O   -18.13094    7.37892  -13.91222
      H1   -18.11776    8.26451  -13.57576

