60
frame 0 | Written by MDAnalysis XYZWriter (release 2.4.3)
       H    17.69453   13.46025  -11.93100
       O    17.81685   13.32148  -10.96747
      H1    16.94066   12.97909  -10.70170
       H    16.86602   10.08393  -13.16142
       O    17.67420   10.63358  -13.02162
      H1    17.56999   11.05843  -12.15881
       H    17.75022   17.79561  -10.98478
       O    17.49493   17.25320  -11.74320
      H1    17.74554   16.37366  -11.43671
       H    14.22518   11.79723   -8.53052
       O    13.30827   11.60804   -8.41580
      H1    13.25114   10.64516   -8.31165
       H    15.46663   13.28042  -13.90779
       O    15.15545   13.37581  -12.99758
      H1    15.13253   14.33347  -12.82816
       H    11.96162   10.86686  -14.47263
       O    12.74578   10.69010  -13.92576
      H1    13.44007   10.90884  -14.55230
       H    16.09119   12.29748   -8.71913
       O    15.48681   12.90079   -9.20895
      H1    15.58144   13.74909   -8.80578
       H    14.41996   11.47587  -16.43669
       O    14.66321   10.72819  -15.84320
      H1    14.00495   10.03102  -15.93105
       H    13.30116   15.31597  -15.84721
       O    13.95351   15.88440  -16.34506
      H1    13.61244   15.87415  -17.26078
       H    11.25361   14.77967  -15.19919
       O    12.05313   14.53092  -14.72960
      H1    12.07646   13.56396  -14.66415
       H    18.20720   11.88168  -16.28889
       O    18.27534   12.74487  -15.87539
      H1    18.22354   12.52061  -14.92496
       H    14.12061   15.41740   -9.48866
       O    15.03529   15.68893   -9.32279
      H1    15.32484   15.93705  -10.21807
       H    13.56356   11.94698  -10.43617
       O    13.08969   12.35358  -11.17056
      H1    13.80832   12.67569  -11.76638
       H    12.47560   15.83765  -13.06517
       O    12.19473   16.63692  -12.64100
      H1    11.24328   16.74162  -12.84863
       H    15.30223   14.51845  -16.54156
       O    15.62156   13.61727  -16.71055
      H1    16.49448   13.53535  -16.26768
       H    15.68200    9.59611  -14.81945
       O    16.05849    8.81920  -14.38748
      H1    15.33990    8.50383  -13.82004
       H    12.77375   13.82556  -10.40979
       O    12.46538   14.68305  -10.11630
      H1    12.47236   15.11530  -10.95662
       H    19.12050   14.53030  -13.26025
       O    18.18933   14.30934  -13.44070
      H1    17.96481   14.96635  -14.07527
       H    11.88797   10.90348  -11.00436
       O    11.10409   10.34303  -11.02812
      H1    11.39408    9.57387  -10.49848
       H    14.38527   16.95790  -12.19464
       O    14.92706   16.14268  -12.33104
      H1    15.82052   16.47566  -12.36612

