60
frame 0 | Written by MDAnalysis XYZWriter (release 2.4.3)
       H    11.10822  -10.06651   -6.75973
       O    10.66834  -10.84392   -7.07056
      H1    11.36096  -11.20103   -7.66384
       H    10.58629  -14.67068   -9.05237
       O    10.37610  -13.80620   -8.70378
      H1    10.66013  -13.21432   -9.41960
       H     7.55854   -7.18952  -11.31105
       O     7.94025   -6.63461  -11.99255
      H1     7.25296   -6.01541  -12.25609
       H    10.62827   -9.02398  -10.18400
       O    11.42778   -9.40507  -10.54473
      H1    11.48448   -9.00447  -11.37805
       H     8.75697  -12.73386   -8.47139
       O     8.35829  -12.08962   -7.86094
      H1     9.08914  -11.46471   -7.72413
       H     3.31464  -10.35565  -10.04387
       O     4.09558  -10.84407  -10.41578
      H1     4.37850  -11.33941   -9.65832
       H    12.99092  -12.01999   -9.73709
       O    12.92188  -11.29397   -9.08412
      H1    12.29321  -10.69214   -9.50109
       H     5.71582   -7.79747   -8.23510
       O     6.50787   -7.37726   -7.84047
      H1     6.12037   -6.86629   -7.08806
       H     4.60338   -8.03920  -11.64626
       O     5.14339   -8.08224  -10.84864
      H1     5.09593   -9.01210  -10.61426
       H     6.75006  -12.09679  -11.69554
       O     7.18767  -12.64878  -11.01743
      H1     7.76352  -13.20785  -11.52957
       H     8.97868   -7.37057   -8.85245
       O     9.52567   -6.57538   -8.98184
      H1     8.77633   -5.90828   -9.08641
       H     7.81114   -8.19732   -7.03928
       O     8.64533   -8.64460   -6.88852
      H1     8.38492   -9.45785   -6.35620
       H     8.18316   -9.84309  -10.29912
       O     8.71072   -9.33455   -9.67091
      H1     8.47305   -9.77977   -8.83982
       H     6.07461  -10.46817  -13.49992
       O     5.93959  -10.93956  -12.67527
      H1     5.05403  -11.32017  -12.72977
       H    11.79296   -8.02140   -9.40606
       O    12.20862   -7.22370   -9.09225
      H1    13.11009   -7.37461   -9.34890
       H    10.45651  -12.97396  -11.86059
       O    11.20547  -12.66113  -11.34879
      H1    11.42525  -11.86576  -11.85590
       H     9.62622  -10.79749  -13.33095
       O    10.08352  -11.58373  -13.64567
      H1     9.45186  -11.83985  -14.35969
       H     6.45662  -11.97063   -8.89219
       O     5.66763  -11.78054   -8.40649
      H1     5.94624  -11.82806   -7.48688
       H     9.72023   -5.95059  -11.59701
       O    10.65726   -6.02546  -11.44502
      H1    10.60497   -6.29042  -10.52454
       H     9.26358   -8.10768  -14.40282
       O     8.65466   -8.51801  -13.78006
      H1     8.34497   -7.77391  -13.24927

