60
frame 0 | Written by MDAnalysis XYZWriter (release 2.4.3)
       H    -8.86912   -5.36389   -6.03408
       O    -9.55783   -5.85550   -6.47995
      H1    -9.21069   -6.75887   -6.32615
       H    -3.63089   -9.45609   -4.56614
       O    -4.56936   -9.29282   -4.62896
      H1    -4.70145   -8.84608   -5.46533
       H    -1.99780   -8.54555   -8.41021
       O    -2.36700   -8.08429   -9.16856
      H1    -1.70258   -8.24718   -9.84419
       H    -7.05164   -4.73114   -9.70211
       O    -6.44536   -4.46091  -10.40559
      H1    -6.09447   -3.64383   -9.99931
       H    -5.22890   -5.59885  -10.67817
       O    -4.60798   -6.30079  -10.50618
      H1    -3.97347   -6.20969  -11.23951
       H    -2.29627   -6.42390   -7.36964
       O    -1.45226   -6.53246   -6.92201
      H1    -1.47680   -5.89118   -6.18840
       H    -5.91939   -6.44379   -3.94802
       O    -6.69187   -6.03734   -4.45192
      H1    -6.55723   -6.34545   -5.36983
       H    -7.30386   -8.38132   -9.74582
       O    -7.81330   -8.42653   -8.92086
      H1    -8.67306   -8.80226   -9.16386
       H    -4.11886   -7.52605   -4.16055
       O    -4.22294   -6.82153   -3.50077
      H1    -3.56145   -6.20351   -3.79360
       H    -8.73924   -5.72708   -8.04103
       O    -8.43150   -5.77836   -8.97955
      H1    -8.11333   -6.70144   -9.07691
       H    -3.89777   -6.29357   -8.91084
       O    -3.84047   -6.13626   -7.95394
      H1    -4.15882   -5.22118   -7.84970
       H    -8.08921  -10.42900   -6.39841
       O    -8.93402  -10.65114   -6.82667
      H1    -8.73434  -11.44582   -7.33718
       H    -5.22521   -6.82245   -7.16006
       O    -5.77127   -7.33073   -6.53370
      H1    -6.29091   -7.94702   -7.04489
       H    -5.96594   -7.56340  -11.20257
       O    -6.83596   -7.88677  -11.42298
      H1    -6.72639   -8.51646  -12.15639
       H    -5.56871  -10.54882   -9.17611
       O    -6.51325  -10.76991   -9.09420
      H1    -6.94718   -9.91724   -8.97406
       H    -7.48468   -9.77666   -3.33035
       O    -7.23845   -8.91834   -2.93810
      H1    -6.45927   -8.70979   -3.46942
       H    -4.20798  -12.67020   -6.06047
       O    -4.48283  -12.51663   -6.96167
      H1    -5.31755  -12.00964   -6.89342
       H    -8.04264   -7.97803   -4.65174
       O    -8.60017   -8.08790   -5.42592
      H1    -9.18489   -8.80811   -5.19656
       H    -3.56365  -10.34777  -10.19060
       O    -3.84305  -10.26636   -9.25155
      H1    -3.54743   -9.35018   -9.09708
       H    -5.94321  -10.58261   -4.98380
       O    -6.57492  -11.00562   -5.55034
      H1    -6.69979  -11.89127   -5.14247

