60
frame 7 | Written by MDAnalysis XYZWriter (release 2.4.3)
       H    -4.77017   -8.08804   -1.73199
       O    -4.55762   -9.00968   -1.62880
      H1    -3.90591   -9.00423   -0.94952
       H    -2.23914   -5.50128   -5.73574
       O    -2.81216   -5.45376   -6.47965
      H1    -2.45338   -4.66861   -6.88764
       H    -5.34926   -3.39803   -3.83420
       O    -4.58314   -3.97992   -3.99521
      H1    -4.04372   -3.53839   -4.64324
       H   -10.77629   -7.39699   -5.34782
       O   -10.83043   -7.02658   -4.47083
      H1   -11.18609   -6.16283   -4.51558
       H    -9.14013   -6.11522   -4.40688
       O    -8.57177   -5.48700   -3.98775
      H1    -7.79486   -5.63770   -4.50861
       H    -8.49202   -6.46404   -8.31172
       O    -8.63274   -6.46410   -7.34769
      H1    -7.82929   -6.90442   -6.94231
       H    -7.51629   -7.13716   -0.16196
       O    -7.69106   -6.20239    0.01856
      H1    -7.01622   -5.89348    0.63008
       H    -6.37750   -7.13569   -4.29069
       O    -6.66354   -7.22914   -5.22654
      H1    -6.78666   -8.18192   -5.34059
       H    -7.84158   -8.81270   -1.26421
       O    -7.14196   -8.83316   -0.52090
      H1    -6.27965   -8.81421   -0.90092
       H    -7.93892  -10.52094   -5.16443
       O    -7.08159  -10.22613   -4.87670
      H1    -6.92723  -10.84248   -4.14319
       H    -5.18737   -6.92920   -9.23359
       O    -5.71408   -7.61262   -8.88804
      H1    -5.43279   -7.84758   -8.00470
       H    -4.88666   -5.86607   -2.88141
       O    -5.61398   -6.45985   -2.67467
      H1    -6.26988   -5.90668   -2.21365
       H    -8.45981   -9.30421   -3.34301
       O    -9.07875   -8.82606   -2.78486
      H1    -9.59804   -8.21856   -3.28362
       H    -7.91116  -11.67663   -2.02855
       O    -7.04563  -11.52248   -2.49916
      H1    -6.59265  -12.30218   -2.16626
       H    -9.17334   -4.50307   -7.07398
       O    -8.95693   -3.56201   -6.96331
      H1    -8.51180   -3.06810   -7.67376
       H    -4.58788   -7.99364   -6.06798
       O    -3.74385   -8.06492   -6.51402
      H1    -3.43605   -7.09831   -6.51928
       H    -7.98363   -4.16671   -2.67599
       O    -7.53857   -3.99512   -1.77941
      H1    -7.79633   -4.77363   -1.25252
       H    -1.86276   -9.82311   -4.37418
       O    -1.47398   -9.46066   -5.20426
      H1    -2.27939   -9.08389   -5.62713
       H    -3.66785  -10.43717   -2.94841
       O    -2.94501  -11.00074   -3.16418
      H1    -2.59697  -11.21631   -2.23954
       H    -4.94844   -4.47540   -6.95144
       O    -5.40411   -4.08876   -7.71046
      H1    -6.32572   -3.94050   -7.40615

