60
frame 7 | Written by MDAnalysis XYZWriter (release 2.4.3)
       H     6.19980  -18.21103   15.26235
       O     6.47888  -17.48520   14.72078
      H1     5.73401  -16.93488   14.72335
       H     0.65355  -12.11368   11.38107
       O     0.89747  -13.02758   11.16045
      H1     1.21756  -13.00526   10.26301
       H     5.15208  -13.72760   12.41251
       O     5.97328  -14.15302   12.59245
      H1     6.00440  -14.81822   11.85345
       H     7.04782  -16.78656   11.55865
       O     7.83525  -16.23517   11.71134
      H1     7.99175  -16.41218   12.63241
       H     3.53143  -19.81789   16.07544
       O     4.22939  -19.25083   15.73860
      H1     4.67169  -18.94921   16.55830
       H     7.82226  -16.61615   15.55991
       O     8.46719  -16.27212   16.19909
      H1     7.98661  -15.73027   16.85682
       H     2.83689  -17.94425   12.58424
       O     3.20917  -17.14084   12.16890
      H1     2.77714  -16.89401   11.29706
       H     5.64391  -17.28576   18.50783
       O     5.53150  -18.20093   18.10246
      H1     4.97495  -18.59944   18.76292
       H    -0.59056  -14.04696   12.83673
       O    -0.80095  -14.50488   13.67958
      H1    -1.73661  -14.73242   13.69349
       H     1.56977  -15.07078   15.43913
       O     0.85679  -15.71983   15.43244
      H1     0.17909  -15.31197   14.91405
       H     1.13577  -17.45332   18.07444
       O     1.21971  -16.45200   17.94736
      H1     0.99122  -16.18727   17.03575
       H     3.35918  -16.38694    9.27367
       O     2.78262  -15.81973    9.79613
      H1     2.73322  -14.96363    9.29844
       H     3.04363  -13.79401   16.56064
       O     2.54291  -13.04159   16.23163
      H1     3.21554  -12.29131   16.31543
       H     6.49621  -13.43828   16.84735
       O     6.53365  -14.23680   17.42138
      H1     5.67776  -14.64887   17.39803
       H     3.17444  -16.03018   17.68755
       O     3.87045  -15.53244   17.27488
      H1     3.84006  -15.73018   16.34163
       H     0.10472  -18.45967   14.07638
       O    -0.73302  -18.53793   14.51380
      H1    -0.48707  -18.92905   15.36578
       H     2.78305  -12.90862   11.76610
       O     3.74072  -12.68961   11.72394
      H1     4.06922  -12.71920   10.81800
       H     5.93263  -18.21401   12.69848
       O     5.74211  -18.04156   11.75951
      H1     4.84535  -17.65032   11.73620
       H     4.91598  -15.28146   13.84051
       O     4.43834  -15.83682   14.45585
      H1     3.67024  -16.13275   13.98316
       H     0.49454  -15.70884   10.77124
       O    -0.38079  -16.03502   11.05073
      H1    -0.84781  -15.28532   11.41288

