60
frame 0 | Written by MDAnalysis XYZWriter (release 2.4.3)
       H    17.29158    0.82557  -10.87758
       O    16.90702    1.69254  -10.75507
      H1    16.02091    1.41036  -10.51469
       H    15.07485    3.77793   -9.47430
       O    15.45258    4.46348  -10.00452
      H1    16.32135    4.51390   -9.63751
       H    12.10191    1.60243  -13.42165
       O    12.54649    2.40337  -13.15585
      H1    13.28112    2.13461  -12.62103
       H    14.88516    4.94566  -12.65664
       O    14.06872    5.41566  -12.77325
      H1    14.38331    6.31242  -12.95979
       H    17.15760    4.20297  -13.16852
       O    16.92806    5.08249  -12.85320
      H1    17.39145    5.21972  -12.03591
       H    15.06055    5.88960   -8.87925
       O    14.65504    6.27743   -8.08689
      H1    13.97829    5.63897   -7.84236
       H    14.94729   -2.12668  -11.15822
       O    15.66745   -2.65561  -10.78933
      H1    16.45191   -2.10033  -10.88812
       H    16.93556   -1.30697  -13.73111
       O    17.71134   -0.87696  -14.05631
      H1    17.48304   -0.57866  -14.92502
       H    18.91997    6.38017  -10.73552
       O    17.97991    6.56368  -10.49977
      H1    17.93470    6.59641   -9.52924
       H    18.65061    2.17616   -8.85975
       O    17.98458    1.64965   -8.38940
      H1    17.26029    1.66248   -9.03904
       H    14.42447    0.78973   -5.85331
       O    13.81221    1.31461   -6.40776
      H1    13.68469    0.65946   -7.10993
       H    16.86379    1.90041  -12.77053
       O    16.85835    2.44392  -13.55071
      H1    16.36053    1.86557  -14.14993
       H    18.37750   -1.43968   -8.13834
       O    17.66133   -1.85054   -7.62821
      H1    17.96422   -1.70170   -6.71925
       H    18.37121   -0.96011  -12.16818
       O    17.95213   -0.90317  -11.32243
      H1    18.64494   -0.76013  -10.70599
       H    12.47244   -1.94312  -11.62225
       O    13.18874   -1.30737  -11.45635
      H1    12.69384   -0.52661  -11.16044
       H    12.36331    3.53819   -9.81663
       O    12.17268    2.62152   -9.58103
      H1    11.86126    2.68988   -8.68341
       H    15.11605   -1.93069   -9.25470
       O    15.06326   -1.27389   -8.51422
      H1    15.88122   -1.44325   -7.98479
       H    13.63219    1.32324   -9.40561
       O    14.53332    1.01825   -9.63209
      H1    14.66957    0.21678   -9.07157
       H    16.56840    2.74799   -7.30709
       O    15.69954    3.18481   -7.44658
      H1    15.09575    2.47145   -7.25391
       H    14.20901    1.13863  -15.62146
       O    14.92723    0.75514  -15.08616
      H1    14.93491   -0.17623  -15.27408

