60
frame 0 | Written by MDAnalysis XYZWriter (release 2.4.3)
       H     2.70317   -7.45091  -10.81148
       O     1.94519   -7.05283  -10.42397
      H1     1.78705   -6.27338  -10.97006
       H     1.12583   -9.58123   -8.66137
       O     1.61427   -9.78973   -9.48626
      H1     1.75377   -8.93458   -9.87986
       H     2.14128  -12.14731   -6.32489
       O     2.05983  -11.85820   -5.42054
      H1     2.32426  -12.62128   -4.87948
       H     8.75697  -12.73386   -8.47139
       O     8.35829  -12.08962   -7.86094
      H1     9.08914  -11.46471   -7.72413
       H     3.31464  -10.35565  -10.04387
       O     4.09558  -10.84407  -10.41578
      H1     4.37850  -11.33941   -9.65832
       H     5.71582   -7.79747   -8.23510
       O     6.50787   -7.37726   -7.84047
      H1     6.12037   -6.86629   -7.08806
       H     4.60338   -8.03920  -11.64626
       O     5.14339   -8.08224  -10.84864
      H1     5.09593   -9.01210  -10.61426
       H     6.75006  -12.09679  -11.69554
       O     7.18767  -12.64878  -11.01743
      H1     7.76352  -13.20785  -11.52957
       H     3.69528   -8.23188   -7.28310
       O     3.89126   -7.92837   -8.18738
      H1     3.80468   -6.97017   -8.16290
       H     2.87406  -12.99162  -12.16174
       O     2.92022  -12.03825  -12.32286
      H1     3.45036  -11.72483  -11.58978
       H    -0.51739  -12.58831   -8.36972
       O     0.20627  -12.76127   -8.92938
      H1     0.77750  -11.98888   -8.77824
       H     8.18316   -9.84309  -10.29912
       O     8.71072   -9.33455   -9.67091
      H1     8.47305   -9.77977   -8.83982
       H     2.40498  -15.33631  -12.06207
       O     3.01217  -14.91979  -11.43437
      H1     3.82955  -15.36702  -11.65779
       H     1.26245  -14.27943   -8.79171
       O     2.05648  -14.85374   -8.76101
      H1     2.25842  -14.88737   -9.74072
       H     4.70453  -13.24353   -8.30458
       O     4.68887  -14.21842   -8.24596
      H1     3.76689  -14.44607   -8.41767
       H     6.07461  -10.46817  -13.49992
       O     5.93959  -10.93956  -12.67527
      H1     5.05403  -11.32017  -12.72977
       H     3.32540  -10.06046  -14.91677
       O     2.52247  -10.00348  -14.40746
      H1     2.65135  -10.68254  -13.73465
       H     6.45662  -11.97063   -8.89219
       O     5.66763  -11.78054   -8.40649
      H1     5.94624  -11.82806   -7.48688
       H     6.33237  -14.22865  -10.80758
       O     6.23916  -15.10130  -10.40775
      H1     5.75643  -14.96741   -9.58793
       H     5.53707  -13.41729   -5.81430
       O     5.41918  -12.46348   -5.56695
      H1     5.93594  -12.38510   -4.73354

