60
frame 8 | Written by MDAnalysis XYZWriter (release 2.4.3)
       H    -7.14066   -5.24716    5.48914
       O    -7.74132   -4.85116    4.81639
      H1    -7.30427   -3.99966    4.60897
       H    -7.34325    0.42627    6.33066
       O    -6.72437    1.09715    6.08850
      H1    -5.80895    0.67678    6.05941
       H     0.49372   -2.40943    3.00586
       O     1.23065   -2.68178    3.49653
      H1     0.97754   -2.83044    4.39386
       H    -2.83780    1.57736    4.46061
       O    -3.79473    1.54878    4.26630
      H1    -3.88733    1.51504    3.30115
       H    -0.79308   -4.34388    7.81793
       O    -1.34865   -3.67692    7.39460
      H1    -0.88573   -2.93485    6.95022
       H    -5.03878   -7.51663    5.02813
       O    -4.51859   -6.76931    4.77145
      H1    -5.06305   -6.39600    4.02598
       H    -7.14606   -1.52550    5.33231
       O    -6.80591   -2.04356    4.60763
      H1    -7.43007   -1.93795    3.89306
       H    -2.47470   -1.12594    8.95945
       O    -1.59335   -1.47963    9.13288
      H1    -1.36031   -2.20246    8.48581
       H     0.64946   -1.38588    6.90089
       O    -0.18444   -1.39169    6.38735
      H1    -0.29969   -0.45294    6.14409
       H    -4.05111   -0.06459    7.42337
       O    -4.34294   -0.24325    6.53005
      H1    -3.81141    0.26352    5.91263
       H    -4.13119   -4.05217    8.02049
       O    -4.31756   -4.22202    8.94362
      H1    -4.62860   -5.12669    8.79885
       H    -3.50543   -2.15315    4.71227
       O    -4.22100   -2.56182    4.29271
      H1    -5.03696   -2.03318    4.39584
       H    -5.74968   -5.30981    2.36345
       O    -6.34270   -5.83649    2.92889
      H1    -6.87195   -5.30106    3.48717
       H    -1.54645   -4.26639    5.64169
       O    -1.49634   -4.70458    4.81221
      H1    -2.29732   -5.17954    4.58485
       H    -1.35642   -1.84936    1.56380
       O    -0.39873   -1.98966    1.47448
      H1    -0.32120   -2.76839    0.89297
       H    -4.89271   -4.08128    5.79655
       O    -4.96860   -4.78747    6.40007
      H1    -5.08925   -5.61365    5.92442
       H    -0.94765    1.67578    6.00946
       O    -1.18689    1.11158    5.24551
      H1    -0.54702    1.31398    4.58143
       H    -3.53311   -1.95647    2.38717
       O    -3.17064   -1.88870    1.53119
      H1    -3.86245   -1.42724    1.08842
       H    -0.70654   -5.45328    3.11740
       O    -0.47602   -6.00734    2.39299
      H1     0.36278   -6.44367    2.65063
       H    -4.24958   -4.69781    0.46206
       O    -5.09653   -4.50602    0.79165
      H1    -5.09129   -3.57900    0.99186

