60
frame 0 | Written by MDAnalysis XYZWriter (release 2.4.3)
       H    16.86080  -18.85832   -3.62000
       O    15.96901  -18.51392   -3.70010
      H1    15.68756  -18.69987   -4.61768
       H    16.42346  -16.25007  -13.09319
       O    16.69241  -15.36752  -13.37379
      H1    17.56140  -15.50449  -13.75995
       H    17.99629  -15.77747   -5.85755
       O    18.26576  -16.68560   -5.74414
      H1    19.05144  -16.56633   -5.19973
       H    12.64257  -13.68153  -11.11742
       O    13.30798  -13.85295  -10.41938
      H1    14.11580  -13.60196  -10.89886
       H    17.65983  -13.74712   -6.94668
       O    17.15539  -14.58258   -6.96611
      H1    16.23131  -14.27966   -6.88391
       H    11.17175  -14.24567   -7.05665
       O    11.55800  -14.55726   -6.23923
      H1    12.48140  -14.83429   -6.44212
       H    17.91541  -11.29690   -6.61542
       O    18.32201  -12.14451   -6.80848
      H1    19.12181  -12.06086   -6.25780
       H    16.66884  -15.71557   -9.34386
       O    16.07755  -16.43000   -9.04187
      H1    16.17587  -16.37793   -8.09192
       H    14.59040  -13.53016  -14.61849
       O    14.45824  -14.09045  -13.85957
      H1    15.31551  -14.52881  -13.76903
       H    16.52262  -18.60451  -14.91825
       O    15.78633  -19.15148  -14.63423
      H1    15.58164  -18.86292  -13.73633
       H    17.56391  -18.00154   -9.64652
       O    18.28695  -18.61753   -9.86833
      H1    18.89894  -18.59740   -9.13221
       H    13.91936  -16.53613  -12.26581
       O    14.41329  -17.26341  -12.72418
      H1    14.10211  -18.01689  -12.21538
       H    15.66031  -11.59261  -11.78377
       O    15.72659  -12.51843  -11.51003
      H1    15.53731  -13.02387  -12.27967
       H    10.55266  -16.71918   -9.82064
       O    10.96152  -16.43970   -8.99762
      H1    11.83747  -16.91026   -9.11253
       H    16.73209  -13.83324  -10.56500
       O    17.46614  -14.41201  -10.41949
      H1    17.48421  -14.91885  -11.25881
       H    18.44257  -15.92540   -8.79903
       O    19.17723  -16.39076   -8.38088
      H1    18.89867  -16.41808   -7.45324
       H    13.59568  -15.50623   -9.85968
       O    13.51992  -16.46572   -9.93518
      H1    14.42065  -16.71937   -9.69068
       H    14.43547  -13.55997   -6.62239
       O    14.34871  -14.51397   -6.53570
      H1    14.57253  -14.75413   -5.64337
       H    14.32546  -11.52980   -6.05167
       O    15.19535  -11.80004   -6.39440
      H1    15.78518  -11.51438   -5.69577
       H    11.09667  -18.03296   -7.48303
       O    11.63630  -18.83652   -7.46448
      H1    11.74150  -19.01110   -6.51902

