60
frame 0 | Written by MDAnalysis XYZWriter (release 2.4.3)
       H   -12.16258  -11.58755   17.70413
       O   -11.37873  -11.47086   17.19179
      H1   -10.79517  -12.15513   17.54627
       H   -10.09242  -12.11902   13.51465
       O   -10.75652  -12.23663   12.83432
      H1   -11.58829  -11.93159   13.21624
       H   -16.44260  -11.48602   16.07029
       O   -16.89548  -12.19539   15.59443
      H1   -17.06873  -11.78723   14.73020
       H   -16.60940  -15.69440   12.49026
       O   -16.23415  -15.16854   13.22682
      H1   -15.55686  -14.63098   12.85720
       H   -13.80560   -7.84220   12.23083
       O   -14.19751   -8.01237   11.37284
      H1   -13.38864   -8.25438   10.89988
       H    -9.62507  -10.81304    9.96122
       O   -10.36003  -10.76049   10.58563
      H1   -10.15974  -11.40541   11.27226
       H   -11.57693   -9.67114   16.41616
       O   -12.09472   -8.88359   16.25034
      H1   -11.61982   -8.20751   16.72831
       H   -11.20344  -14.68872   15.71466
       O   -10.71612  -14.60540   16.54986
      H1   -11.19916  -15.26110   17.07753
       H   -10.39117  -11.96441   15.73617
       O    -9.59953  -12.00800   15.18519
      H1    -9.14277  -11.17641   15.39582
       H   -13.30112  -14.47428   12.81125
       O   -14.06598  -14.26463   12.21772
      H1   -13.93837  -14.92040   11.50467
       H   -17.06176  -10.37990   12.58905
       O   -17.35847  -10.40035   13.50352
      H1   -16.97484   -9.62740   13.93969
       H   -11.92080   -7.08080   13.18235
       O   -11.34588   -6.43457   12.74986
      H1   -11.73608   -5.58799   12.95109
       H   -16.30556   -7.26533   14.21540
       O   -15.93376   -8.02163   13.77433
      H1   -15.12098   -8.14057   14.24477
       H   -14.44626  -12.59906   11.48876
       O   -14.69775  -11.69483   11.26685
      H1   -14.01293  -11.47161   10.62652
       H   -11.15097  -14.06475   13.46049
       O   -11.58081  -14.60506   14.11773
      H1   -11.46134  -15.51351   13.78566
       H   -12.60863  -11.16682    8.56114
       O   -12.44542  -11.71642    9.34591
      H1   -11.69762  -11.31198    9.80879
       H   -13.98789  -11.78747   17.02231
       O   -14.57204  -11.15922   16.57507
      H1   -14.71177  -10.41540   17.17259
       H    -7.88852   -9.47373   15.05983
       O    -8.58832   -9.68092   15.69549
      H1    -9.29808   -9.09138   15.40495
       H   -13.69523  -11.23057   14.81672
       O   -13.10339  -11.11868   14.09272
      H1   -13.67385  -10.89332   13.36533
       H   -13.84124   -7.05890   14.41435
       O   -13.25162   -7.76852   14.11732
      H1   -12.81745   -8.05100   14.92358

