60
frame 0 | Written by MDAnalysis XYZWriter (release 2.4.3)
       H    -1.54113    4.40021    4.84241
       O    -2.47418    4.66241    4.89251
      H1    -2.40252    5.60084    4.67361
       H    -5.42314    4.39867    9.94495
       O    -5.14381    4.60386   10.89296
      H1    -4.57383    5.36986   10.80932
       H    -7.03897    8.25036    9.76628
       O    -6.52175    7.42060    9.65668
      H1    -5.93075    7.65611    8.93467
       H    -8.77557    7.51065    2.96441
       O    -8.60467    7.13305    3.81736
      H1    -7.77715    6.68246    3.77678
       H    -6.73396   11.82913    5.69946
       O    -7.43475   11.52578    6.28087
      H1    -7.53595   10.63032    5.99520
       H    -1.31997    7.54466    6.35966
       O    -0.39107    7.50731    6.08905
      H1    -0.40143    8.06721    5.30346
       H    -7.08018    4.88727   10.35156
       O    -7.99058    5.13201   10.04607
      H1    -7.80367    5.99726    9.66293
       H    -6.82850    8.62859    5.90251
       O    -7.61598    8.98785    5.51026
      H1    -7.85443    8.26977    4.89737
       H    -9.55223    9.21565    7.56613
       O    -9.04701    9.05466    8.36168
      H1    -9.01612    8.08516    8.36224
       H    -1.24714    8.63671    9.77118
       O    -2.14473    8.55338   10.10435
      H1    -2.12466    9.13426   10.85125
       H    -8.16643    5.75583    7.40971
       O    -7.54043    5.69452    6.67618
      H1    -7.55379    6.59833    6.27748
       H    -2.02340    4.75882    6.59185
       O    -2.14609    4.30747    7.44641
      H1    -1.74239    3.44501    7.29498
       H    -3.27461    6.18852    7.65490
       O    -2.76391    6.98655    7.50969
      H1    -2.74530    7.52418    8.30106
       H    -5.82497    5.00001    7.30606
       O    -4.99458    4.96160    7.78582
      H1    -4.45010    4.34845    7.25750
       H    -4.40629   10.56967   10.36403
       O    -4.20609   10.83663   11.27595
      H1    -4.43605   11.78447   11.29384
       H    -5.62213    7.69330    3.33119
       O    -5.25333    7.01348    3.87702
      H1    -4.31043    7.04445    3.65918
       H    -4.80720    7.77076    6.83728
       O    -5.53399    8.30055    7.17922
      H1    -5.04428    8.98710    7.62578
       H    -4.18043   11.03406    7.81754
       O    -4.37101   10.32247    8.45037
      H1    -3.50159   10.14299    8.74193
       H    -2.36841    7.08765    2.64801
       O    -2.32936    7.40833    3.51910
      H1    -2.51912    8.34771    3.45531
       H    -5.97744    5.73889    2.96187
       O    -6.70510    5.41646    2.38171
      H1    -6.50747    4.47595    2.25931

