60
frame 0 | Written by MDAnalysis XYZWriter (release 2.4.3)
       H     0.48109   13.60372    9.13757
       O     1.02986   12.87163    9.47680
      H1     0.41342   12.33397    9.90764
       H    -1.13753   12.49187    6.49048
       O    -0.68824   11.61628    6.55283
      H1     0.19501   11.90005    6.29809
       H    -3.64762   16.65689   11.07485
       O    -3.51902   15.71799   11.01431
      H1    -4.13947   15.30000   11.60500
       H     0.90767    8.25745    8.67021
       O     0.51712    8.09375    9.53385
      H1     1.03910    8.65909   10.13079
       H    -1.24714    8.63671    9.77118
       O    -2.14473    8.55338   10.10435
      H1    -2.12466    9.13426   10.85125
       H    -6.64957   12.95252    7.17340
       O    -6.21418   13.63801    7.68594
      H1    -6.92965   14.22492    7.91431
       H    -3.27461    6.18852    7.65490
       O    -2.76391    6.98655    7.50969
      H1    -2.74530    7.52418    8.30106
       H    -1.64188   14.74979   11.84437
       O    -1.30246   14.21514   12.55251
      H1    -1.82202   13.43343   12.51363
       H    -0.47625   15.93711    9.36774
       O     0.02518   15.41025    8.69728
      H1    -0.66914   14.79770    8.36066
       H    -3.85627    8.93610   13.76083
       O    -3.16135    9.24598   13.16041
      H1    -3.60690    9.83410   12.52333
       H    -4.40629   10.56967   10.36403
       O    -4.20609   10.83663   11.27595
      H1    -4.43605   11.78447   11.29384
       H     3.50828   13.22828   11.29488
       O     2.60985   13.55661   11.49732
      H1     2.23679   13.38254   10.63548
       H    -4.80720    7.77076    6.83728
       O    -5.53399    8.30055    7.17922
      H1    -5.04428    8.98710    7.62578
       H     2.55803   10.65038    9.42863
       O     2.36258   10.23300   10.28046
      H1     1.59536   10.75367   10.58037
       H    -4.18043   11.03406    7.81754
       O    -4.37101   10.32247    8.45037
      H1    -3.50159   10.14299    8.74193
       H    -2.63972   14.21928    7.36015
       O    -1.74070   13.92642    7.21059
      H1    -1.36060   14.55625    6.58154
       H    -4.08484   14.57958    9.66199
       O    -3.90946   13.85324    9.02038
      H1    -4.82461   13.68991    8.68891
       H    -5.58408   13.53062   12.44734
       O    -4.66284   13.43587   12.18234
      H1    -4.19784   12.98530   12.90879
       H    -1.43327   11.80090    8.33042
       O    -1.98605   11.70473    9.12991
      H1    -2.69938   12.36075    9.04364
       H    -1.10555   11.37828   10.62714
       O    -0.26624   11.06766   11.03578
      H1    -0.38414   11.30667   11.95901

