60
frame 0 | Written by MDAnalysis XYZWriter (release 2.4.3)
       H    18.35009    1.26027   -1.99308
       O    18.97423    0.62703   -2.38218
      H1    18.54077   -0.23490   -2.29140
       H    16.36602    0.06482   -4.85557
       O    15.97262    0.93409   -4.70413
      H1    15.40008    0.76515   -3.92913
       H    14.68307   -2.55877   -4.20127
       O    15.10455   -2.87028   -3.39121
      H1    15.03414   -3.84317   -3.46472
       H    14.45857    1.52295    1.31366
       O    15.20502    1.34392    0.70506
      H1    15.32751    0.37693    0.71581
       H    18.61490    1.89312   -4.39918
       O    18.25227    2.49742   -5.03401
      H1    17.35018    2.22210   -5.18051
       H    17.33803   -5.08776   -5.07257
       O    17.50380   -4.15234   -4.99713
      H1    18.28431   -4.14741   -4.43146
       H    19.10116    2.61019    1.46209
       O    18.72622    3.28531    0.91747
      H1    18.12704    3.72452    1.53744
       H    16.82436   -2.04586    2.72869
       O    17.50136   -2.33914    3.32794
      H1    18.32456   -2.29677    2.81412
       H    14.71362   -1.16223    2.19875
       O    15.31595   -1.20414    1.42823
      H1    14.69882   -1.57384    0.80556
       H    16.41550   -1.94707   -2.40479
       O    17.07175   -1.32923   -2.09373
      H1    16.67098   -0.49826   -2.39504
       H    16.71619    2.13984   -0.56378
       O    17.41818    2.39360   -1.19344
      H1    18.04745    2.89721   -0.62072
       H    17.32109   -3.36266    0.71019
       O    17.08640   -4.29000    0.50327
      H1    17.01385   -4.62848    1.39960
       H    17.69106   -1.47169   -0.39111
       O    18.27364   -1.88770    0.23124
      H1    18.79441   -2.45280   -0.32375
       H    16.44806   -1.73129    4.61432
       O    16.02397   -1.49774    5.44843
      H1    16.72957   -1.24486    6.07146
       H    16.89609    2.18508    2.96021
       O    16.78684    1.22404    2.89721
      H1    16.17276    1.16105    2.19297
       H    14.77951    0.52742   -1.34061
       O    14.82515    1.06812   -2.16503
      H1    13.89772    1.15491   -2.49656
       H    18.44024    0.26759    3.89742
       O    19.32603    0.21245    4.24043
      H1    19.69726   -0.57330    3.81613
       H    17.02863   -2.36921   -4.72171
       O    17.28481   -1.46830   -5.03055
      H1    18.18730   -1.39883   -4.65699
       H    15.30355   -4.08155    0.47655
       O    14.35027   -4.09441    0.32018
      H1    14.23964   -3.30418   -0.20163
       H    13.11454   -1.62478   -1.05684
       O    14.04308   -1.62752   -0.83753
      H1    14.47953   -1.97337   -1.63304

