60
frame 0 | Written by MDAnalysis XYZWriter (release 2.4.3)
       H    11.68455    2.60044  -17.69130
       O    12.26720    2.09119  -18.23588
      H1    12.54434    1.31136  -17.69110
       H    19.22323    4.85295  -18.92815
       O    18.53239    4.28226  -19.26178
      H1    18.39124    3.55474  -18.67076
       H    12.81408    9.85410  -16.53739
       O    13.02749    8.99617  -16.91662
      H1    12.15052    8.70649  -17.25328
       H    13.21685    4.54791  -15.58876
       O    13.54397    5.16269  -14.95121
      H1    13.83239    5.88228  -15.47671
       H    16.89425    8.03470  -16.65323
       O    17.70002    8.23635  -17.06487
      H1    18.17193    7.35883  -17.06381
       H    10.25991    4.48403  -19.32702
       O    10.38653    4.91489  -18.52087
      H1    10.29258    5.91587  -18.61267
       H     9.91132    4.81068  -14.51962
       O    10.15476    5.20496  -13.65903
      H1    11.05854    5.55208  -13.66201
       H    14.59985   10.09339  -15.32984
       O    15.07111   10.86871  -15.04444
      H1    15.44460   11.20442  -15.94629
       H    14.31647    6.73760  -19.66161
       O    13.43765    6.67396  -19.27133
      H1    12.87397    6.02299  -19.79737
       H     7.85256    6.61175  -18.49888
       O     7.73795    6.72927  -17.56989
      H1     8.25591    7.53813  -17.51067
       H    13.87734    3.43333  -17.94094
       O    14.48026    4.16035  -17.88323
      H1    14.43946    4.58589  -18.75493
       H     7.77494    5.51277  -16.33184
       O     7.82376    4.64529  -15.88245
      H1     6.90703    4.54259  -15.57582
       H    16.80875    6.51052  -14.82363
       O    17.02515    5.61312  -14.57789
      H1    16.42215    4.94115  -14.87679
       H    14.61546    3.47778  -14.01319
       O    15.46826    3.17979  -14.36119
      H1    15.28276    2.53721  -15.04734
       H    10.01603    2.50498  -16.23620
       O    10.68068    3.20912  -16.02655
      H1    10.44184    3.92729  -16.64112
       H    12.79304   11.37120  -18.02382
       O    12.79044   11.24717  -19.01315
      H1    13.62429   10.75523  -19.18520
       H     7.65562    3.64699  -17.57596
       O     7.47551    2.99564  -18.24928
      H1     6.52289    2.83709  -18.20120
       H    15.20160    6.26567  -16.97917
       O    15.07906    7.04126  -16.43992
      H1    14.45699    7.58312  -16.93656
       H    10.72091    8.31207  -18.92574
       O    11.01361    7.77695  -18.18122
      H1    11.82393    7.27953  -18.47457
       H    15.42247    2.77912  -17.72768
       O    15.91162    1.91659  -17.74091
      H1    15.63214    1.35658  -18.45002

