60
frame 0 | Written by MDAnalysis XYZWriter (release 2.4.3)
       H   -15.90643    3.60815   -7.35334
       O   -16.03381    2.67106   -7.58103
      H1   -15.82078    2.24680   -6.75056
       H   -13.19818    1.23481   -8.81223
       O   -14.02805    1.04937   -9.27982
      H1   -13.95252    1.47390  -10.16723
       H   -16.11551    5.18674   -5.80721
       O   -16.43247    5.24539   -6.74317
      H1   -17.35716    4.95216   -6.63193
       H   -17.02009    0.64400  -10.34333
       O   -16.85701    1.44531  -10.86305
      H1   -17.27935    1.28930  -11.70887
       H   -17.15348   -1.08918  -13.71488
       O   -17.31328   -0.39468  -13.06537
      H1   -16.77131   -0.61808  -12.29276
       H   -15.91635    8.94888  -11.50840
       O   -15.20573    9.10448  -12.15088
      H1   -14.75457    9.85855  -11.74799
       H   -13.06303    6.77218  -12.24588
       O   -13.87399    6.83012  -12.73893
      H1   -14.20999    7.72449  -12.56645
       H   -16.24249    1.26727  -13.55840
       O   -15.42411    1.77270  -13.73471
      H1   -15.61458    2.62687  -13.36190
       H   -14.71857    5.84046  -11.52950
       O   -14.76524    5.33341  -10.70234
      H1   -15.73003    5.19489  -10.56025
       H   -19.38910    9.20511  -13.04677
       O   -18.75675    8.47246  -12.97712
      H1   -19.10082    7.84047  -13.59418
       H   -17.46810    3.19423   -8.65738
       O   -17.95120    3.33825   -9.46600
      H1   -17.54959    2.64655  -10.05124
       H   -13.75933    6.51711   -9.84280
       O   -13.41282    6.92333   -9.05451
      H1   -14.04689    7.64273   -8.89692
       H   -16.34497    5.26280  -14.61310
       O   -16.25055    5.10152  -13.65308
      H1   -15.42891    5.56031  -13.44627
       H   -16.61130    7.06470   -7.39125
       O   -16.85645    7.89395   -7.82740
      H1   -17.04216    7.69283   -8.73590
       H   -13.39743    3.65825  -12.02269
       O   -13.96971    3.00379  -11.53777
      H1   -14.41036    3.62850  -10.92507
       H   -13.97093    3.16710   -8.36697
       O   -13.55789    4.00370   -8.23249
      H1   -13.99052    4.60269   -8.87175
       H   -17.72891   -0.14719   -8.50619
       O   -18.45154   -0.27454   -9.12670
      H1   -19.14613    0.26049   -8.70776
       H   -17.87293    3.48689  -13.86617
       O   -18.41712    3.21067  -13.11889
      H1   -19.21218    2.84931  -13.55823
       H   -17.82797    8.98796  -10.60208
       O   -17.24385    8.22549  -10.62693
      H1   -17.47668    7.72090  -11.43301
       H   -18.05324    4.63192  -10.70407
       O   -17.53777    5.35096  -11.12799
      H1   -17.58170    5.07502  -12.08068

