60
frame 8 | Written by MDAnalysis XYZWriter (release 2.4.3)
       H   -16.78767    1.18649    5.61754
       O   -16.32394    0.68530    4.89018
      H1   -16.72648    1.02349    4.09819
       H   -16.73804    2.82713    7.23732
       O   -17.11041    1.90217    7.27332
      H1   -18.00473    2.00015    7.64927
       H   -18.79354   -3.85962    0.18546
       O   -18.80497   -4.83629    0.33120
      H1   -19.50989   -4.91417    0.94673
       H   -17.74451    0.39018    2.32652
       O   -17.35171    1.29708    2.35974
      H1   -17.94715    2.00897    2.16361
       H   -18.06152   -1.71543    3.10082
       O   -17.77403   -1.26633    2.33010
      H1   -17.03777   -1.74742    2.01277
       H   -16.75429    0.68642    8.58624
       O   -16.94567    0.34609    9.49818
      H1   -16.28053   -0.36955    9.73380
       H   -13.62954   -1.69481    4.53741
       O   -13.53942   -0.73480    4.58489
      H1   -14.36266   -0.28557    4.35175
       H   -15.33279   -3.48493    3.32392
       O   -16.00178   -3.43130    2.61590
      H1   -15.97816   -4.16041    2.03727
       H   -13.19466   -4.00883    4.00708
       O   -13.86633   -3.49204    4.47795
      H1   -14.12885   -4.05715    5.23754
       H   -19.41700   -2.52483   10.11696
       O   -18.90387   -2.75486    9.33794
      H1   -19.12007   -2.15378    8.61521
       H   -20.12476   -1.94273    6.99153
       O   -19.78345   -1.06395    7.23916
      H1   -18.99184   -1.06475    6.70193
       H   -18.28016   -4.42898    4.73455
       O   -18.30148   -3.71925    4.06040
      H1   -17.40638   -3.81724    3.60618
       H   -19.41073   -1.84561   -0.59179
       O   -19.57407   -2.10628    0.31004
      H1   -19.01243   -1.61516    0.92793
       H   -17.15064   -1.03234    5.18363
       O   -17.76934   -1.55984    5.69449
      H1   -18.11118   -2.30320    5.12584
       H   -19.12859   -5.91159    8.93721
       O   -18.63493   -5.32804    8.35639
      H1   -18.73146   -4.43325    8.80679
       H   -17.64873   -5.48989    1.51202
       O   -16.82519   -5.94373    1.70515
      H1   -16.39300   -5.92247    0.78821
       H   -15.87207   -5.44280    5.25649
       O   -16.53139   -5.84569    4.67240
      H1   -16.25411   -5.51857    3.78323
       H   -14.47954   -5.72486    6.94469
       O   -14.69004   -4.92449    6.52528
      H1   -15.14584   -4.38205    7.19119
       H   -18.17406   -6.52489    4.93356
       O   -19.14130   -6.38175    4.90969
      H1   -19.50762   -6.79516    4.13222
       H   -16.75399   -2.33610    6.97945
       O   -16.07192   -2.76354    7.57772
      H1   -16.51799   -2.85875    8.42403

