60
frame 0 | Written by MDAnalysis XYZWriter (release 2.4.3)
       H    16.36602    0.06482   -4.85557
       O    15.97262    0.93409   -4.70413
      H1    15.40008    0.76515   -3.92913
       H    14.68307   -2.55877   -4.20127
       O    15.10455   -2.87028   -3.39121
      H1    15.03414   -3.84317   -3.46472
       H    11.08371    0.59952   -7.00145
       O    10.88632    1.48112   -6.64174
      H1    11.62866    1.69834   -6.09289
       H    16.41550   -1.94707   -2.40479
       O    17.07175   -1.32923   -2.09373
      H1    16.67098   -0.49826   -2.39504
       H    12.03480    0.16165   -4.21529
       O    12.44516    0.71520   -3.56874
      H1    11.67621    1.14219   -3.16363
       H    11.60748    3.76195   -3.37524
       O    11.12265    3.46713   -2.58160
      H1    10.67643    4.25809   -2.23879
       H    14.42447    0.78973   -5.85331
       O    13.81221    1.31461   -6.40776
      H1    13.68469    0.65946   -7.10993
       H     8.06027   -1.31680   -4.97542
       O     8.79783   -0.74614   -5.25043
      H1     9.38706   -1.39742   -5.66888
       H    11.01636   -2.54682   -4.41153
       O    11.32695   -1.94954   -5.12262
      H1    12.16956   -2.33938   -5.35984
       H    11.03857   -0.53160   -1.37851
       O    11.39673   -1.01461   -0.63367
      H1    11.18272   -0.40858    0.10728
       H    14.77951    0.52742   -1.34061
       O    14.82515    1.06812   -2.16503
      H1    13.89772    1.15491   -2.49656
       H    12.07015   -0.98037   -8.50277
       O    12.23544   -0.68765   -7.59142
      H1    12.20811   -1.52440   -7.13885
       H    13.77406   -3.71607   -6.36804
       O    13.84476   -2.78396   -6.07582
      H1    14.27311   -2.32524   -6.82583
       H    13.75831    4.15171   -1.28238
       O    14.15681    4.96943   -1.62819
      H1    15.06914    4.74057   -1.62955
       H    11.78152    3.35544   -0.90939
       O    12.39909    3.28524   -0.18109
      H1    11.97312    3.87372    0.47860
       H    10.54984    1.68429    1.74160
       O    11.06992    1.26619    1.01535
      H1    11.70992    1.92961    0.68196
       H     8.59478    3.15294   -4.69957
       O     8.84373    3.24999   -5.61400
      H1     9.54390    2.60077   -5.74164
       H     9.09954   -1.05309   -2.30884
       O     9.85459   -0.67860   -2.79708
      H1     9.46358   -0.47945   -3.66963
       H    13.29364    4.29368   -5.25002
       O    12.65934    3.62142   -4.95644
      H1    13.14239    2.79267   -5.07764
       H    13.11454   -1.62478   -1.05684
       O    14.04308   -1.62752   -0.83753
      H1    14.47953   -1.97337   -1.63304

