60
frame 0 | Written by MDAnalysis XYZWriter (release 2.4.3)
       H    17.67793   -7.09151    4.40657
       O    18.12645   -6.86408    5.22727
      H1    18.29474   -5.93148    5.11295
       H    14.80457   -5.69778   10.63591
       O    15.68054   -5.41390   10.28819
      H1    16.20043   -6.21002   10.37400
       H    14.03868   -8.47493    6.92031
       O    14.17211   -8.67137    7.84061
      H1    13.91879   -7.86995    8.30227
       H    17.67554   -4.39383    8.11971
       O    18.48252   -3.84664    8.09695
      H1    18.70179   -3.75813    7.15047
       H    19.23360   -3.95164    4.67596
       O    18.49553   -4.22333    5.26022
      H1    17.80814   -3.57630    5.09688
       H    15.38752   -3.14850    5.29087
       O    14.99284   -4.01925    5.49007
      H1    15.54266   -4.42937    6.18321
       H    15.01266   -7.42993    4.63842
       O    14.45869   -6.83640    5.20298
      H1    14.69634   -5.97167    4.87174
       H    13.55426   -6.10529    6.74511
       O    13.43151   -6.03056    7.69003
      H1    12.50489   -5.83208    7.74154
       H    15.93322   -4.85847    3.74958
       O    15.61327   -5.16569    2.91756
      H1    14.68620   -4.94736    2.86619
       H    17.49918   -7.75298    9.15847
       O    17.75519   -7.31628    9.99569
      H1    18.54031   -6.84277    9.78388
       H    14.41328   -8.30149   11.56204
       O    14.11989   -7.66806   10.91932
      H1    13.41194   -8.12309   10.43831
       H    11.57146   -3.64568    6.91422
       O    10.61189   -3.74120    6.94685
      H1    10.49296   -4.60136    7.39433
       H    16.32539   -8.38869    2.83341
       O    16.61231   -8.39006    3.76307
      H1    16.15743   -9.15426    4.11485
       H    13.24543   -2.91817    8.19864
       O    13.06795   -2.90579    7.26805
      H1    13.81043   -3.41876    6.91304
       H    11.54865   -3.57733   10.31783
       O    12.45252   -3.22693   10.39083
      H1    12.96876   -3.99902   10.65322
       H    16.44806   -1.73129    4.61432
       O    16.02397   -1.49774    5.44843
      H1    16.72957   -1.24486    6.07146
       H    18.25945   -0.09842    7.86375
       O    18.05091   -0.83090    7.31365
      H1    18.21667   -1.62416    7.86995
       H    15.90821   -5.49538    8.27006
       O    16.40351   -5.32386    7.46505
      H1    16.60480   -6.23470    7.16094
       H    16.42696   -3.58655   12.06654
       O    16.80162   -3.23035   11.23888
      H1    16.34130   -3.89424   10.66598
       H    15.97557   -8.23605    7.44792
       O    16.88561   -7.96078    7.56764
      H1    17.20593   -7.82387    6.66281

