60
frame 8 | Written by MDAnalysis XYZWriter (release 2.4.3)
       H   -16.55895   -4.88398   -1.63978
       O   -16.84118   -4.07943   -2.11546
      H1   -17.20596   -4.34093   -2.90685
       H   -15.96795   -6.92648   -1.06192
       O   -15.56485   -6.08312   -0.76938
      H1   -14.63181   -6.06182   -1.12025
       H   -16.76542   -5.53268   -7.23230
       O   -17.13095   -6.26346   -6.68527
      H1   -17.41471   -5.69668   -5.91972
       H   -18.79354   -3.85962    0.18546
       O   -18.80497   -4.83629    0.33120
      H1   -19.50989   -4.91417    0.94673
       H   -13.61626   -4.97353   -4.71972
       O   -14.54996   -4.97572   -4.96756
      H1   -15.15029   -5.08438   -4.22939
       H   -18.74801   -7.85781   -1.29284
       O   -19.37756   -7.06668   -1.38754
      H1   -19.02684   -6.37747   -0.81262
       H   -16.36027   -9.47280   -1.37054
       O   -17.13932   -8.86122   -1.31044
      H1   -17.68214   -9.14522   -0.55854
       H   -18.92332   -4.81260   -4.30017
       O   -18.00493   -4.47889   -4.47395
      H1   -18.17562   -3.60753   -4.84943
       H   -15.33279   -3.48493    3.32392
       O   -16.00178   -3.43130    2.61590
      H1   -15.97816   -4.16041    2.03727
       H   -19.76085   -9.35837    3.69184
       O   -19.12259   -9.81565    4.23749
      H1   -19.54122  -10.08228    5.05273
       H   -18.71945   -9.58671    2.00196
       O   -19.07115   -9.00640    1.28507
      H1   -19.90450   -9.43307    0.98653
       H   -18.28016   -4.42898    4.73455
       O   -18.30148   -3.71925    4.06040
      H1   -17.40638   -3.81724    3.60618
       H   -19.41073   -1.84561   -0.59179
       O   -19.57407   -2.10628    0.31004
      H1   -19.01243   -1.61516    0.92793
       H   -18.09079   -2.72018   -2.35972
       O   -18.94143   -2.27423   -2.47149
      H1   -18.84601   -1.57141   -3.16269
       H   -19.36758   -9.58254   -3.60112
       O   -19.46253   -9.04497   -4.38439
      H1   -19.65397   -8.12893   -4.17406
       H   -15.01143   -8.07257    1.16150
       O   -15.65131   -8.45255    1.75434
      H1   -16.24540   -7.72338    1.85878
       H   -17.64873   -5.48989    1.51202
       O   -16.82519   -5.94373    1.70515
      H1   -16.39300   -5.92247    0.78821
       H   -15.87207   -5.44280    5.25649
       O   -16.53139   -5.84569    4.67240
      H1   -16.25411   -5.51857    3.78323
       H   -18.17406   -6.52489    4.93356
       O   -19.14130   -6.38175    4.90969
      H1   -19.50762   -6.79516    4.13222
       H   -15.57817   -2.53415   -0.60951
       O   -14.83775   -1.89236   -0.84770
      H1   -15.22776   -1.32344   -1.54488

