60
frame 8 | Written by MDAnalysis XYZWriter (release 2.4.3)
       H    -7.05642    9.55148  -17.74268
       O    -7.83030   10.05711  -17.51035
      H1    -7.52777   10.98286  -17.62916
       H    -8.52440   11.37879  -12.14579
       O    -9.01363   12.06335  -12.62917
      H1    -9.13650   12.75693  -11.91698
       H    -9.72574    7.45212  -16.31321
       O    -9.27805    8.01682  -15.68598
      H1    -8.89497    8.73469  -16.20334
       H   -11.37093    6.80790  -17.09492
       O   -10.68344    7.10419  -17.71317
      H1   -10.88403    8.08284  -17.64881
       H   -11.01369   15.31864  -13.95961
       O   -11.01738   14.45896  -13.53325
      H1   -10.50715   13.83654  -14.10515
       H   -13.69347    9.93452  -19.75174
       O   -13.87829   10.03821  -18.82159
      H1   -14.17204    9.17909  -18.51528
       H   -13.36282   14.17176  -13.64447
       O   -14.25071   13.95899  -13.32469
      H1   -14.60871   13.47873  -14.07568
       H   -11.03790   10.57422  -14.10304
       O   -10.93579   10.15519  -14.92119
      H1   -10.47551    9.37480  -14.63326
       H    -6.73386   16.83815  -17.64083
       O    -7.37324   16.83641  -16.88130
      H1    -8.31742   16.71947  -17.20082
       H   -12.58955   16.55418  -17.59977
       O   -12.19470   15.83970  -17.05869
      H1   -12.65329   15.01663  -17.17770
       H   -12.77033   13.20021  -17.30405
       O   -13.61523   13.60341  -17.48390
      H1   -13.86848   13.41385  -18.45003
       H    -7.04456   14.96405  -16.28010
       O    -7.28430   14.06949  -16.48608
      H1    -6.89669   13.56689  -15.80164
       H   -10.62322   12.44110  -16.82908
       O   -11.18993   12.33939  -17.65436
      H1   -11.24101   11.35837  -17.64589
       H    -7.87704   12.92994  -19.49532
       O    -7.12867   12.57334  -18.99825
      H1    -6.94645   13.31201  -18.32927
       H   -10.68569   16.13009  -18.25164
       O    -9.96825   16.39940  -18.86913
      H1   -10.24519   17.20582  -19.28713
       H    -7.81162   13.38596  -13.22756
       O    -6.94074   13.76453  -13.42164
      H1    -6.95355   14.72386  -13.30123
       H   -14.91666   12.75568  -16.25262
       O   -15.45356   12.60767  -15.43080
      H1   -16.40751   12.74541  -15.71315
       H   -12.42787    9.92253  -17.77146
       O   -11.49213    9.74936  -17.47094
      H1   -11.35043    9.91812  -16.54101
       H    -9.06010   13.62065  -15.77794
       O    -9.65261   12.95893  -15.46525
      H1    -9.31678   12.35958  -14.71762
       H   -10.24093   12.39243  -19.10542
       O    -9.64845   12.35516  -19.89040
      H1    -9.35911   11.41277  -20.02066

