60
frame 0 | Written by MDAnalysis XYZWriter (release 2.4.3)
       H   -10.70480   12.31305   13.42456
       O   -10.21286   13.09077   13.12008
      H1   -10.07671   13.61762   13.93128
       H   -11.93943   13.44259   10.44606
       O   -12.54870   12.74214   10.20714
      H1   -12.24002   12.55904    9.30149
       H   -13.31247   12.54566    7.58387
       O   -12.31891   12.43564    7.61272
      H1   -12.13503   11.58430    7.15979
       H   -14.98546   15.70418    7.77501
       O   -14.36070   14.97657    7.76058
      H1   -14.43462   14.70471    8.68043
       H    -8.36104   18.66663   10.15009
       O    -9.31074   18.72750   10.07305
      H1    -9.53301   19.06857   10.96538
       H   -10.04138   13.07502    4.36491
       O   -10.21779   13.93176    4.80196
      H1    -9.62054   13.87884    5.55487
       H    -9.84664   17.10071    9.14643
       O   -10.20509   16.23580    8.90631
      H1   -10.49680   15.78459    9.73073
       H   -12.87614   16.18755    7.74005
       O   -12.57028   17.05033    7.41441
      H1   -11.68607   17.10389    7.78192
       H    -8.62777   12.46886   12.32282
       O    -7.72899   12.56853   11.95636
      H1    -7.70075   11.92768   11.23230
       H   -14.40871   16.16717   11.81226
       O   -13.92409   15.42264   11.45245
      H1   -14.60062   14.86493   11.04143
       H    -6.64957   12.95252    7.17340
       O    -6.21418   13.63801    7.68594
      H1    -6.92965   14.22492    7.91431
       H    -6.98592   17.67233    5.88039
       O    -7.43709   17.99191    6.67798
      H1    -8.22871   18.44180    6.35062
       H   -13.06639   17.43830    9.25981
       O   -13.43958   17.67746   10.09785
      H1   -13.72766   16.84316   10.41363
       H   -10.12880   13.80307    7.41950
       O    -9.27465   14.26906    7.29557
      H1    -9.30898   14.96807    7.93155
       H   -13.50146   18.25449    4.64228
       O   -12.89821   17.51423    4.76946
      H1   -12.77507   17.51052    5.73352
       H   -12.20597   15.05020   11.66105
       O   -11.27071   14.91869   11.48075
      H1   -11.03418   14.14977   12.02400
       H    -8.78552   17.26636   13.09792
       O    -7.83170   17.28061   12.96220
      H1    -7.68189   16.67733   12.20563
       H   -10.80064   17.50981   12.92923
       O   -10.36620   16.70176   13.24607
      H1   -10.47293   16.11222   12.48952
       H    -7.00285   15.72779   10.29598
       O    -7.18034   15.30054   11.13146
      H1    -7.62799   14.47643   10.90337
       H    -7.27300   16.93513    8.11969
       O    -6.77942   16.29677    8.69666
      H1    -5.89448   16.66500    8.59965

