60
frame 7 | Written by MDAnalysis XYZWriter (release 2.4.3)
       H    -2.11741   -8.23969    0.28896
       O    -2.84704   -8.60457    0.80507
      H1    -3.00266   -8.11250    1.63450
       H    -4.77017   -8.08804   -1.73199
       O    -4.55762   -9.00968   -1.62880
      H1    -3.90591   -9.00423   -0.94952
       H    -5.34926   -3.39803   -3.83420
       O    -4.58314   -3.97992   -3.99521
      H1    -4.04372   -3.53839   -4.64324
       H    -0.58383   -5.14300    0.94336
       O    -0.60079   -4.49468    0.24792
      H1     0.24600   -4.54591   -0.19004
       H    -5.36625   -6.94620    5.43284
       O    -4.82698   -6.31262    4.88877
      H1    -5.31243   -6.15613    4.05967
       H    -7.51629   -7.13716   -0.16196
       O    -7.69106   -6.20239    0.01856
      H1    -7.01622   -5.89348    0.63008
       H    -2.01770   -7.05147   -1.46522
       O    -1.33414   -7.69547   -1.10929
      H1    -0.78156   -7.17854   -0.59262
       H    -4.68982   -0.82164   -0.35444
       O    -5.08962   -1.09623    0.46354
      H1    -6.03308   -1.20740    0.12503
       H    -4.88666   -5.86607   -2.88141
       O    -5.61398   -6.45985   -2.67467
      H1    -6.26988   -5.90668   -2.21365
       H    -7.45976   -2.48965   -0.80072
       O    -7.53578   -1.77897   -0.16911
      H1    -8.07308   -2.16913    0.59893
       H    -5.86171   -5.16607    2.20112
       O    -6.34407   -5.91623    2.49657
      H1    -7.15596   -5.54073    2.77655
       H    -2.38384   -3.91124    5.72257
       O    -2.38202   -4.61316    5.07717
      H1    -3.33198   -4.66695    4.77480
       H    -2.24480   -6.94911    3.17968
       O    -3.10936   -7.43234    3.25851
      H1    -3.60367   -7.09338    4.00227
       H    -2.03642   -4.95387   -0.83630
       O    -2.75044   -5.30283   -1.39696
      H1    -2.74230   -4.64856   -2.17898
       H    -1.52970   -1.88716    2.05846
       O    -0.76818   -2.04584    1.43934
      H1    -0.88145   -2.92122    1.04427
       H    -7.98363   -4.16671   -2.67599
       O    -7.53857   -3.99512   -1.77941
      H1    -7.79633   -4.77363   -1.25252
       H    -3.78129   -1.59698    3.38440
       O    -3.31867   -1.25451    2.54618
      H1    -4.01404   -1.22044    1.78427
       H    -1.09998   -5.19995    3.33260
       O    -0.98829   -5.85535    2.58539
      H1    -0.29200   -6.36345    2.97299
       H    -5.49319    0.17268   -2.07125
       O    -4.50021   -0.00419   -1.96640
      H1    -3.99119    0.77551   -2.22823
       H    -4.62787   -4.28580    0.15795
       O    -4.90198   -4.05361    1.01852
      H1    -5.11979   -3.13980    0.86046

