60
frame 0 | Written by MDAnalysis XYZWriter (release 2.4.3)
       H     5.62204   -1.14955    5.99364
       O     5.60093   -0.27387    5.61327
      H1     6.13993   -0.35361    4.81106
       H     9.01227    2.70777    8.73382
       O     9.55501    3.04993    7.99515
      H1    10.19281    2.33873    7.99980
       H     5.36205    6.19298   13.25225
       O     5.01608    6.43699   12.38136
      H1     5.05544    5.53245   11.92367
       H     1.34034    3.10793    8.53893
       O     1.57196    4.03317    8.81326
      H1     0.78221    4.46067    9.13869
       H     5.28457    3.14612    9.81745
       O     5.73634    2.74498    9.07420
      H1     5.47196    1.82186    9.03426
       H     4.57932   -2.01694   12.42118
       O     5.34688   -1.59756   11.99119
      H1     5.74317   -1.05461   12.67649
       H     7.83584   -0.37994    7.49995
       O     7.30011    0.35729    7.67549
      H1     6.62349    0.30100    6.98936
       H     3.60404   -1.78002    9.21249
       O     3.06282   -2.57653    9.37333
      H1     3.69857   -3.18593    9.80131
       H     3.28249    5.10296   11.01668
       O     3.88370    4.36351   10.94125
      H1     3.69624    4.07213   10.03268
       H     3.18885    2.38661   11.26963
       O     3.00040    1.43893   11.19939
      H1     2.06198    1.47193   10.96394
       H     7.58886    2.68168   10.08883
       O     8.15429    1.89088   10.12963
      H1     7.96962    1.47537    9.27324
       H     6.01438    0.68447   13.33992
       O     5.73686    0.73588   14.25336
      H1     4.83678    1.04620   14.25638
       H     2.05575    0.03890    6.51943
       O     2.05836   -0.69818    5.88157
      H1     1.11220   -0.92582    5.79225
       H     4.47750    2.39561    4.95141
       O     3.97948    1.64527    4.56770
      H1     4.28305    0.88001    5.05969
       H     4.16171    0.09614   10.13327
       O     4.39331   -0.19677    9.25152
      H1     5.34748   -0.41069    9.22345
       H     8.04822    0.65815   13.27131
       O     7.62781    0.34531   12.49502
      H1     7.95532    0.95065   11.77315
       H     7.01946    4.92524   11.48182
       O     7.45112    5.12955   10.63060
      H1     8.34108    5.43436   10.88633
       H     7.25331   -3.56367   10.67321
       O     6.72100   -3.17066    9.97172
      H1     6.20848   -2.46523   10.41527
       H     3.39574    1.26736    7.67682
       O     2.43577    1.25309    7.73140
      H1     2.24516    0.64802    8.43564
       H     7.58472    5.11513    6.79308
       O     6.63934    5.00251    6.74344
      H1     6.37800    4.18277    7.10540

