60
frame 0 | Written by MDAnalysis XYZWriter (release 2.4.3)
       H     2.47010   -8.30418   13.63955
       O     2.54900   -7.36300   13.87511
      H1     2.21497   -7.32458   14.79185
       H    -1.27662   -7.11082   17.39501
       O    -1.63569   -7.52536   16.62111
      H1    -1.52282   -8.44414   16.81078
       H     1.01257   -6.00700   16.80043
       O     0.75754   -5.85523   15.88572
      H1    -0.06151   -6.35452   15.82114
       H     1.61070  -10.20701   17.11452
       O     0.85439   -9.73264   16.75633
      H1     0.79484  -10.13996   15.87837
       H     1.11867   -4.54964   14.93269
       O     1.11024   -3.82821   14.29100
      H1     1.03969   -3.07706   14.86640
       H    -4.59188   -7.38967   14.71072
       O    -5.37432   -7.80960   15.10852
      H1    -6.00805   -7.08340   15.10193
       H     0.70779   -5.67475   19.07878
       O     1.50113   -5.40855   18.57669
      H1     1.39209   -4.45946   18.46631
       H    -4.34903   -7.38389   18.10338
       O    -4.46373   -8.10986   18.69979
      H1    -5.40728   -8.39321   18.56611
       H     3.32856   -8.58791   17.07621
       O     3.63999   -7.88254   16.48239
      H1     4.49259   -8.21529   16.22101
       H    -1.46569   -5.16290   13.83006
       O    -1.39578   -4.29048   13.45446
      H1    -0.56623   -3.94772   13.77951
       H    -4.95448   -4.24852   18.33431
       O    -5.30933   -3.52319   18.82798
      H1    -6.15082   -3.36182   18.37103
       H    -3.22469   -2.72528   15.52579
       O    -3.17342   -3.66451   15.37592
      H1    -2.49385   -3.74512   14.69090
       H    -3.16721   -4.75967   16.94123
       O    -3.50275   -5.12556   17.77856
      H1    -2.89489   -4.80435   18.45565
       H    -2.75515  -10.95828   18.56278
       O    -2.49259  -10.13574   18.15903
      H1    -3.21511   -9.51816   18.38718
       H    -3.13991   -9.71199   12.82614
       O    -2.52976   -8.98629   12.71458
      H1    -2.73590   -8.60038   11.88287
       H    -4.61795   -4.85786   12.82552
       O    -4.79642   -4.06490   13.36783
      H1    -4.31374   -4.19603   14.20724
       H    -2.92774  -10.26257   16.47759
       O    -3.47448  -10.33618   15.67377
      H1    -4.27830   -9.85750   15.89820
       H     0.36708  -12.44582   16.82777
       O    -0.57847  -12.37416   17.02482
      H1    -0.76793  -11.49147   16.67548
       H    -2.93856   -7.56013   13.83325
       O    -2.95808   -6.74504   14.31233
      H1    -2.70824   -6.97314   15.25101
       H     0.81141  -10.14487   13.89813
       O    -0.01532  -10.56417   14.20031
      H1    -0.68540  -10.01660   13.79586

