60
frame 0 | Written by MDAnalysis XYZWriter (release 2.4.3)
       H    -7.03818   -5.10541   15.74014
       O    -6.85096   -5.41800   14.85723
      H1    -6.05258   -4.92185   14.62208
       H    -1.27662   -7.11082   17.39501
       O    -1.63569   -7.52536   16.62111
      H1    -1.52282   -8.44414   16.81078
       H     1.01257   -6.00700   16.80043
       O     0.75754   -5.85523   15.88572
      H1    -0.06151   -6.35452   15.82114
       H    -4.59188   -7.38967   14.71072
       O    -5.37432   -7.80960   15.10852
      H1    -6.00805   -7.08340   15.10193
       H     0.70779   -5.67475   19.07878
       O     1.50113   -5.40855   18.57669
      H1     1.39209   -4.45946   18.46631
       H    -4.34903   -7.38389   18.10338
       O    -4.46373   -8.10986   18.69979
      H1    -5.40728   -8.39321   18.56611
       H    -4.27084   -2.06623   18.76785
       O    -3.91388   -1.30295   19.26970
      H1    -3.55468   -0.71982   18.59422
       H    -7.68666  -10.52101   17.06448
       O    -7.20250  -11.05143   17.69897
      H1    -7.83594  -11.76096   17.93965
       H    -9.74742   -6.61870   17.62271
       O   -10.43449   -6.55342   16.95294
      H1   -10.00509   -6.79266   16.08878
       H    -4.95448   -4.24852   18.33431
       O    -5.30933   -3.52319   18.82798
      H1    -6.15082   -3.36182   18.37103
       H    -3.22469   -2.72528   15.52579
       O    -3.17342   -3.66451   15.37592
      H1    -2.49385   -3.74512   14.69090
       H    -3.16721   -4.75967   16.94123
       O    -3.50275   -5.12556   17.77856
      H1    -2.89489   -4.80435   18.45565
       H    -2.75515  -10.95828   18.56278
       O    -2.49259  -10.13574   18.15903
      H1    -3.21511   -9.51816   18.38718
       H    -4.61795   -4.85786   12.82552
       O    -4.79642   -4.06490   13.36783
      H1    -4.31374   -4.19603   14.20724
       H    -2.92774  -10.26257   16.47759
       O    -3.47448  -10.33618   15.67377
      H1    -4.27830   -9.85750   15.89820
       H    -5.90414  -11.80325   16.10861
       O    -5.67095  -11.79634   15.17708
      H1    -4.71350  -11.64835   15.21158
       H    -7.70672   -4.39889   17.99630
       O    -7.47388   -3.89191   17.23263
      H1    -8.24071   -3.30172   17.14124
       H    -6.13111   -8.87305   13.76123
       O    -6.76899   -9.28263   13.16307
      H1    -7.22393   -8.56687   12.72419
       H    -7.88852   -9.47373   15.05983
       O    -8.58832   -9.68092   15.69549
      H1    -9.29808   -9.09138   15.40495
       H    -2.93856   -7.56013   13.83325
       O    -2.95808   -6.74504   14.31233
      H1    -2.70824   -6.97314   15.25101

