60
frame 0 | Written by MDAnalysis XYZWriter (release 2.4.3)
       H    -6.25998   -6.93445    7.77211
       O    -5.66677   -7.69905    7.86307
      H1    -4.80759   -7.33832    8.03571
       H    -3.97333  -13.16499    5.55298
       O    -3.06642  -13.08038    5.20722
      H1    -2.78416  -12.17955    5.49854
       H    -9.43762  -10.00529    2.42910
       O    -9.57818  -10.78792    2.95279
      H1    -8.69465  -11.16088    3.01981
       H    -7.60157   -7.80979    4.94448
       O    -8.47797   -7.39944    5.03451
      H1    -8.57188   -7.21629    5.98441
       H    -1.89144  -10.11116    6.35576
       O    -2.85636  -10.17489    6.54354
      H1    -2.89363  -10.03096    7.45463
       H    -3.14316   -9.61052    3.35767
       O    -2.28964   -9.27347    3.07217
      H1    -1.91336   -9.91902    2.48290
       H    -8.61029  -10.51528    7.88618
       O    -8.41238  -10.18537    8.79436
      H1    -7.78448  -10.83152    9.08909
       H    -5.75754  -13.02559    6.54350
       O    -5.54480  -13.88579    6.15116
      H1    -5.43840  -14.45008    6.92466
       H    -3.40532   -8.11033    5.45219
       O    -3.98959   -7.36568    5.25618
      H1    -4.87820   -7.72471    5.40250
       H    -6.02543   -8.72537    6.51246
       O    -6.36843   -8.97680    5.63998
      H1    -6.42195   -9.92898    5.65571
       H    -8.77399   -9.59503    5.60888
       O    -8.87045  -10.41454    6.06069
      H1    -8.52116  -11.09394    5.46560
       H    -6.97483  -12.64150    4.21957
       O    -7.83460  -12.53850    4.65421
      H1    -7.87681  -13.30274    5.26176
       H    -8.37195   -8.40012    8.28673
       O    -8.59213   -7.49791    8.04009
      H1    -9.54996   -7.58926    7.84693
       H   -11.21221   -8.83134    3.52800
       O   -10.92752   -8.75458    4.44124
      H1   -10.14546   -8.21026    4.36409
       H    -5.23674  -11.51194    2.11603
       O    -5.79893  -12.27465    1.96936
      H1    -6.35990  -12.02139    1.23011
       H    -5.56870  -11.40068    8.20848
       O    -5.45207  -11.31544    7.22312
      H1    -4.63384  -10.81648    7.16738
       H    -6.89627  -11.91819   10.53501
       O    -6.54802  -12.13904    9.66409
      H1    -7.13997  -12.83919    9.34946
       H   -11.51060  -12.16716    5.28654
       O   -11.41369  -11.33207    5.73153
      H1   -10.74576  -10.89052    5.19132
       H    -5.50280   -9.26201    3.81437
       O    -5.00642   -9.81951    3.16704
      H1    -4.93869   -9.28136    2.36521
       H    -6.02431   -8.69802    9.29880
       O    -5.78404   -9.23450   10.09426
      H1    -6.54311   -9.27776   10.67243

