60
frame 0 | Written by MDAnalysis XYZWriter (release 2.4.3)
       H     6.03795   15.61082    9.59172
       O     6.22889   16.03542   10.46603
      H1     7.17397   16.32533   10.42730
       H     3.32505   14.90796    8.70746
       O     2.98610   15.81448    8.60478
      H1     2.02217   15.69186    8.62116
       H     5.23030   13.46938    9.70302
       O     5.20356   14.07828    8.93212
      H1     4.96087   13.49702    8.21265
       H     4.44050   17.20741    7.78059
       O     5.18315   17.71922    8.14551
      H1     4.79885   18.23303    8.87485
       H     2.29148   13.32702    5.45667
       O     1.81446   12.50973    5.52250
      H1     2.03166   12.16430    6.40984
       H     4.89793   11.64695    3.67711
       O     4.63688   12.22228    4.41685
      H1     4.02577   12.86458    4.02629
       H     7.08805   13.96051    3.28897
       O     7.74073   13.54334    3.85834
      H1     7.40552   12.65194    3.99342
       H     5.60050   14.80369    5.93188
       O     6.55887   14.65912    6.13004
      H1     6.89706   14.15690    5.35884
       H     5.75328   18.30541    6.52917
       O     6.13942   18.71834    5.76161
      H1     6.56216   19.52724    6.12220
       H     7.17096   17.76728    4.75541
       O     7.58837   17.36032    3.97744
      H1     8.08153   16.63369    4.37880
       H     3.31635   15.38312    6.98537
       O     3.62464   15.14854    6.11216
      H1     3.41020   15.92791    5.60541
       H     7.40684   15.52335    1.93340
       O     6.49957   15.63194    2.26280
      H1     6.61891   16.38734    2.81685
       H     8.57304   14.32622   10.57381
       O     9.07177   13.83029    9.90081
      H1     8.47242   13.97857    9.13823
       H     7.70368   15.31582    7.63709
       O     8.57038   15.72473    7.73452
      H1     8.38477   16.60983    8.03145
       H     7.22208   12.80313    7.08305
       O     7.98376   12.41727    7.50465
      H1     8.72246   12.73749    6.97446
       H     5.46346   19.24006    3.87286
       O     4.62327   19.11613    3.34717
      H1     4.12993   18.47237    3.84160
       H     9.02417   14.63063    4.69097
       O     9.61837   15.30650    5.04864
      H1     9.29197   15.31952    5.94625
       H     4.89749   11.93051    6.18229
       O     5.10312   11.89955    7.13774
      H1     5.50942   11.01996    7.27732
       H     2.76578   18.01070    5.23660
       O     3.06519   17.43128    4.51612
      H1     2.31792   17.35376    3.92889
       H     2.63255   10.00777    7.66902
       O     2.65505   10.96555    7.57920
      H1     3.58014   11.16339    7.35754

