60
frame 0 | Written by MDAnalysis XYZWriter (release 2.4.3)
       H     5.82528  -12.74062   15.21078
       O     5.17789  -12.06367   14.95917
      H1     4.62762  -11.93410   15.73537
       H     4.25169   -6.14740   17.17854
       O     4.50066   -5.28743   16.84908
      H1     4.94100   -5.52722   16.02811
       H     9.18670   -7.46249   15.72064
       O     9.66686   -7.69925   14.91478
      H1    10.32523   -7.04185   14.81313
       H     3.36212  -14.13041   12.73238
       O     3.14397  -13.20619   12.88283
      H1     3.88507  -12.93307   13.43849
       H     7.35191  -15.60242   17.45507
       O     7.29189  -16.56059   17.62624
      H1     7.67889  -16.70025   18.49186
       H     8.22408   -6.78894   17.72863
       O     7.94371   -6.84671   16.81294
      H1     7.60381   -7.75802   16.76925
       H     1.61070  -10.20701   17.11452
       O     0.85439   -9.73264   16.75633
      H1     0.79484  -10.13996   15.87837
       H     7.75502  -14.28508   14.17058
       O     7.34705  -13.43312   14.03134
      H1     7.70732  -13.16522   13.13181
       H     6.09335  -10.03416   12.91707
       O     6.94336  -10.28220   13.29980
      H1     7.54297   -9.71652   12.76159
       H     3.32856   -8.58791   17.07621
       O     3.63999   -7.88254   16.48239
      H1     4.49259   -8.21529   16.22101
       H     5.96696  -10.56457   18.64745
       O     5.35635  -10.95030   18.06606
      H1     4.93966  -11.62757   18.60201
       H    10.71951   -8.03549   19.00257
       O    11.61832   -8.03900   18.64356
      H1    11.57752   -8.70898   17.93071
       H     1.89078  -13.41884   16.08627
       O     2.02565  -12.63795   16.61025
      H1     2.56513  -12.92079   17.37704
       H     7.57727  -12.73456   16.76132
       O     7.02754  -13.33855   17.26190
      H1     6.34916  -12.75846   17.63844
       H     5.93309  -10.03693   16.36075
       O     6.13772   -9.23032   15.93773
      H1     6.35873   -9.51375   15.02873
       H    10.81801   -9.10287   15.84661
       O    11.12172   -9.65124   16.58988
      H1    10.33913  -10.18368   16.86298
       H     8.68218  -12.90776   14.94602
       O     9.51293  -12.66112   15.37552
      H1     9.87234  -13.46008   15.82158
       H     0.36708  -12.44582   16.82777
       O    -0.57847  -12.37416   17.02482
      H1    -0.76793  -11.49147   16.67548
       H     8.04849  -10.24707   16.64213
       O     8.69394  -10.75878   17.15845
      H1     9.22537  -11.26037   16.51489
       H     4.08925  -15.18295   17.17075
       O     4.17018  -15.31747   18.13295
      H1     3.30258  -15.66594   18.41272

