60
frame 8 | Written by MDAnalysis XYZWriter (release 2.4.3)
       H     1.65441    3.35263    4.49419
       O     1.56126    3.87018    5.28422
      H1     2.29722    4.46643    5.27392
       H    -0.98970    5.68424    4.29221
       O    -0.32846    5.84929    4.96246
      H1     0.29168    5.08422    4.95093
       H    -7.34325    0.42627    6.33066
       O    -6.72437    1.09715    6.08850
      H1    -5.80895    0.67678    6.05941
       H    -2.01498    5.81840    0.18331
       O    -1.75398    4.98676    0.61259
      H1    -1.73928    5.15085    1.58989
       H    -2.83780    1.57736    4.46061
       O    -3.79473    1.54878    4.26630
      H1    -3.88733    1.51504    3.30115
       H    -3.85964    1.72668    0.88998
       O    -4.16219    1.16098    1.50726
      H1    -4.91175    0.77898    1.04796
       H    -7.80301    3.64571    5.83755
       O    -7.47564    4.39283    5.35931
      H1    -6.49208    4.20038    5.19218
       H    -1.89264    3.73271    4.12876
       O    -2.24771    4.38048    3.58798
      H1    -3.11852    4.49054    4.03058
       H     0.64946   -1.38588    6.90089
       O    -0.18444   -1.39169    6.38735
      H1    -0.29969   -0.45294    6.14409
       H    -7.30205    1.22485    4.26196
       O    -7.54629    0.84734    3.42809
      H1    -8.45890    0.98820    3.27423
       H    -4.05111   -0.06459    7.42337
       O    -4.34294   -0.24325    6.53005
      H1    -3.81141    0.26352    5.91263
       H    -3.50543   -2.15315    4.71227
       O    -4.22100   -2.56182    4.29271
      H1    -5.03696   -2.03318    4.39584
       H    -0.72425    2.91741    7.80232
       O    -0.06916    2.49132    7.18762
      H1     0.34061    3.19091    6.72792
       H    -1.35642   -1.84936    1.56380
       O    -0.39873   -1.98966    1.47448
      H1    -0.32120   -2.76839    0.89297
       H    -1.02211    0.27438    1.23348
       O    -1.34252    1.17741    1.08234
      H1    -2.28295    0.93015    1.22671
       H    -0.94765    1.67578    6.00946
       O    -1.18689    1.11158    5.24551
      H1    -0.54702    1.31398    4.58143
       H    -4.95004    4.64524    3.67346
       O    -4.78878    4.13453    4.51030
      H1    -4.65048    3.20131    4.25223
       H     0.53057    2.06691    2.68658
       O     0.74740    1.89652    3.56573
      H1     1.17081    1.03765    3.57941
       H    -3.53311   -1.95647    2.38717
       O    -3.17064   -1.88870    1.53119
      H1    -3.86245   -1.42724    1.08842
       H    -6.39727    1.38546    7.83514
       O    -6.21242    1.49879    8.79566
      H1    -6.98188    1.05779    9.26294

