60
frame 7 | Written by MDAnalysis XYZWriter (release 2.4.3)
       H    15.54512    3.40337    8.24049
       O    15.30059    3.98005    7.50424
      H1    15.14613    4.89412    7.78280
       H    14.48177    1.70210   12.27155
       O    13.64179    2.19164   12.24463
      H1    13.23341    1.98463   11.39250
       H    14.35936    3.03852    4.86420
       O    15.23640    2.69785    4.91783
      H1    15.59794    3.03271    5.70647
       H    12.48769    2.48763    5.47336
       O    12.00711    3.25184    5.86228
      H1    11.06592    2.85602    5.93252
       H     9.61400    7.78374    5.88757
       O     8.87844    7.17684    5.73092
      H1     9.29231    6.37235    5.52062
       H    12.61894    7.96132    7.07926
       O    12.84747    8.13721    6.14849
      H1    12.12570    8.67668    5.81429
       H    13.42972   -0.56526    7.96905
       O    13.66988   -1.16364    7.23409
      H1    14.39878   -0.79523    6.71997
       H    10.97622    5.21668    3.48465
       O    10.79319    4.27474    3.41888
      H1    11.18369    3.90691    4.23269
       H    16.45672    1.21128    9.31269
       O    16.00595    2.03850    9.17535
      H1    15.10997    1.76001    8.94350
       H    13.63342    6.99938    3.35349
       O    13.81343    6.40137    4.13627
      H1    13.32090    6.86867    4.82327
       H    10.62542    6.44458   10.94068
       O    10.85385    7.34114   10.71715
      H1     9.98378    7.71772   10.58911
       H    11.83883    6.86735    9.25964
       O    12.17959    6.62334    8.38199
      H1    11.38347    6.85848    7.85675
       H    13.64006    5.78872   12.89022
       O    13.68649    5.29267   12.06607
      H1    13.67586    4.34268   12.29101
       H    12.05113    3.48338    8.16886
       O    11.58338    3.06234    8.88898
      H1    10.64134    2.92656    8.80836
       H    10.38766    3.68263   12.39503
       O     9.96633    3.13132   13.11564
      H1     9.50423    2.47011   12.60711
       H    11.13823    4.31742   10.37523
       O    11.19573    4.80963   11.23432
      H1    12.09470    5.03880   11.52650
       H    12.56546    1.61355    9.07607
       O    13.09340    0.83665    9.37580
      H1    12.39777    0.31882    9.88980
       H    14.00088    6.25544    7.90330
       O    14.92794    6.51464    7.93605
      H1    15.10660    6.62504    8.89520
       H     8.43698    2.68462   10.17078
       O     9.14425    2.18157    9.75318
      H1     8.81467    1.22670    9.72712
       H     9.39639    1.28316    6.05433
       O     9.56883    2.20574    5.86718
      H1     8.91723    2.47702    5.15098

