60
frame 0 | Written by MDAnalysis XYZWriter (release 2.4.3)
       H    -3.73669   18.70041  -11.21003
       O    -3.71608   18.16563  -10.42805
      H1    -4.20611   18.74406   -9.83645
       H    -7.24303   17.63024  -15.28960
       O    -7.33341   18.11550  -14.46678
      H1    -8.28106   18.36916  -14.38400
       H    -9.57267   13.47798  -13.91021
       O    -9.48017   14.41593  -14.12879
      H1    -8.57260   14.61283  -13.80047
       H    -6.56803   15.38365  -12.40688
       O    -7.02887   15.45494  -13.28311
      H1    -7.26343   16.41035  -13.36490
       H    -0.93329   12.70872  -12.36607
       O    -1.23767   12.33344  -13.17187
      H1    -1.49449   13.07428  -13.78525
       H    -6.88526   18.61178  -10.71069
       O    -7.03190   18.90343  -11.63439
      H1    -6.55624   18.29538  -12.24134
       H    -6.34199   16.34935  -16.69192
       O    -7.16892   16.80445  -16.91227
      H1    -7.80736   16.13437  -17.11595
       H    -3.98303   13.01494  -16.94485
       O    -3.14771   13.44808  -16.89416
      H1    -3.15445   13.82605  -15.99927
       H    -0.71079   16.98894  -16.81301
       O    -0.75937   17.92479  -16.63801
      H1    -0.51085   18.33804  -17.46073
       H    -3.58461   16.42190  -18.41516
       O    -4.29592   16.96506  -18.08276
      H1    -4.26954   16.80098  -17.13658
       H    -5.23178   11.36752  -15.99082
       O    -5.49761   11.88273  -16.77655
      H1    -5.19797   11.34850  -17.50245
       H    -0.06909   18.07383  -12.66184
       O     0.07947   17.17705  -12.97349
      H1     0.66277   17.31380  -13.74661
       H    -2.19246   18.54391  -19.52151
       O    -2.58575   18.96897  -18.75012
      H1    -3.11887   18.29691  -18.34952
       H    -5.85544   10.92716  -13.48506
       O    -5.23371   11.59377  -13.80407
      H1    -5.19040   12.21028  -13.05173
       H    -5.30235   15.70005  -14.67837
       O    -4.69192   15.94052  -15.39597
      H1    -4.09771   16.59707  -15.02089
       H    -3.75197   19.35880  -16.14017
       O    -3.22198   18.71792  -15.65808
      H1    -2.44023   18.64209  -16.22051
       H    -3.06506   16.54943  -11.52100
       O    -3.02358   15.87564  -12.21828
      H1    -2.96505   15.04284  -11.72819
       H    -2.08411   15.30099  -14.00754
       O    -2.07332   14.53644  -14.61253
      H1    -1.80813   14.93671  -15.43293
       H    -1.50809   15.14199  -17.81649
       O    -1.02637   15.31873  -17.00726
      H1    -0.68897   14.44583  -16.67980
       H    -2.43084   11.77415  -16.19064
       O    -2.12637   10.85100  -16.06876
      H1    -2.17192   10.75010  -15.11104

