60
frame 8 | Written by MDAnalysis XYZWriter (release 2.4.3)
       H    -4.85292   -2.90203  -12.67257
       O    -4.11953   -3.12445  -12.11298
      H1    -3.33747   -2.74062  -12.42005
       H     0.16781   -3.84012   -9.98374
       O    -0.26393   -2.99248  -10.02013
      H1    -0.87236   -3.03329   -9.21081
       H     1.34679    2.86957  -15.47198
       O     1.05492    3.65657  -14.89352
      H1     0.93179    3.40141  -13.99422
       H     1.15565   -1.09078  -14.82152
       O     1.32916   -1.04664  -15.76224
      H1     1.69352   -0.11984  -15.86984
       H     2.71282   -1.55598  -11.95015
       O     3.22338   -2.25448  -12.36058
      H1     2.90291   -3.07355  -11.90591
       H     1.31342    2.61406  -12.00422
       O     0.58248    3.24855  -12.04837
      H1    -0.26844    2.74702  -12.16268
       H     0.87527    0.08143  -10.14269
       O     1.55524    0.13954  -10.83442
      H1     1.86612    1.05614  -10.84683
       H     3.89857    1.71032  -13.02698
       O     3.56349    1.57291  -12.11754
      H1     3.65069    2.44106  -11.60943
       H    -1.78538    1.44841  -13.57894
       O    -1.09015    1.35374  -14.30524
      H1    -0.48008    0.62246  -13.98167
       H     0.49045   -0.38616  -12.23726
       O     0.29965   -0.66719  -13.10081
      H1    -0.29887   -1.45256  -12.97229
       H    -2.42208    1.27050  -11.45026
       O    -2.74021    1.94596  -12.10043
      H1    -3.66606    2.10717  -12.11087
       H    -1.75653    0.58090   -9.33896
       O    -1.52302    0.05953  -10.16529
      H1    -2.33596   -0.39753  -10.41403
       H    -1.88225    0.35865  -17.00514
       O    -2.54485    0.20524  -16.29209
      H1    -2.19047    0.63612  -15.48100
       H    -0.03431   -2.09777  -16.54621
       O    -0.53690   -2.66409  -17.20577
      H1    -1.44997   -2.59911  -16.94926
       H    -0.96741   -2.80449  -11.56315
       O    -1.46042   -2.72482  -12.38535
      H1    -1.52077   -3.56787  -12.76696
       H     3.24322    1.72222  -15.66332
       O     2.66580    1.23171  -16.26632
      H1     3.19256    0.69067  -16.84835
       H     1.57151   -4.28668  -15.42491
       O     0.68898   -4.57735  -15.68679
      H1     0.20572   -3.96423  -16.24615
       H     2.81738   -1.69907  -15.28610
       O     3.45716   -2.38321  -15.02670
      H1     3.41386   -2.37448  -14.01483
       H    -1.66573   -5.93879  -13.66833
       O    -1.77462   -5.00584  -13.93110
      H1    -0.97421   -4.95387  -14.49613
       H     2.35957   -1.89255   -7.97635
       O     1.77702   -2.66088   -8.15951
      H1     1.08174   -2.39320   -8.74008

