60
frame 0 | Written by MDAnalysis XYZWriter (release 2.4.3)
       H    -9.77854   -5.25899    0.09564
       O    -9.39195   -4.56820    0.59974
      H1    -9.78029   -3.77630    0.21084
       H    -9.27986   -6.41642    3.74705
       O    -9.85332   -5.84663    3.21563
      H1    -9.37329   -5.77127    2.36735
       H    -5.99070   -8.21641    0.43703
       O    -5.06728   -8.26354    0.81458
      H1    -5.04472   -7.51970    1.44310
       H    -7.35871   -8.12286   -1.33586
       O    -7.53318   -7.76156   -0.46100
      H1    -7.34951   -6.81144   -0.53868
       H    -8.08581   -3.88634   -3.39334
       O    -7.93085   -3.36024   -2.59790
      H1    -7.66564   -4.08403   -2.01558
       H    -5.91939   -6.44379   -3.94802
       O    -6.69187   -6.03734   -4.45192
      H1    -6.55723   -6.34545   -5.36983
       H    -4.11886   -7.52605   -4.16055
       O    -4.22294   -6.82153   -3.50077
      H1    -3.56145   -6.20351   -3.79360
       H    -9.76417   -9.65184   -2.36712
       O    -9.62974   -9.72069   -1.39373
      H1    -9.39673  -10.65513   -1.30389
       H    -9.47743   -7.17349   -1.13536
       O   -10.24719   -6.63825   -1.33450
      H1   -11.03353   -7.21358   -1.27501
       H    -9.41064   -2.99932   -1.97505
       O   -10.23470   -2.55283   -1.64043
      H1   -10.95481   -3.02340   -2.09759
       H    -4.39697   -6.47129   -1.74043
       O    -4.38701   -6.14834   -0.81500
      H1    -4.49741   -6.95920   -0.33287
       H    -7.55596   -4.84764   -0.05333
       O    -6.95329   -5.05094   -0.80249
      H1    -6.05921   -5.03337   -0.44557
       H    -6.37472   -3.33383    1.28234
       O    -5.49312   -3.73179    1.18817
      H1    -5.05780   -3.41425    2.01501
       H    -9.92315   -6.05254   -4.44594
       O    -9.79398   -5.44155   -3.68683
      H1   -10.09929   -5.99928   -2.92898
       H   -11.34172   -8.82710   -1.05928
       O   -12.20524   -8.42838   -1.00356
      H1   -12.39153   -8.37221   -0.04842
       H    -8.59319   -8.52413    0.89649
       O    -9.12433   -8.39421    1.65885
      H1    -9.87055   -7.80788    1.45026
       H    -7.48468   -9.77666   -3.33035
       O    -7.23845   -8.91834   -2.93810
      H1    -6.45927   -8.70979   -3.46942
       H    -8.04264   -7.97803   -4.65174
       O    -8.60017   -8.08790   -5.42592
      H1    -9.18489   -8.80811   -5.19656
       H    -5.50280   -9.26201    3.81437
       O    -5.00642   -9.81951    3.16704
      H1    -4.93869   -9.28136    2.36521
       H    -6.18774  -11.07379   -1.14858
       O    -6.73217  -11.41143   -0.42066
      H1    -7.49709  -11.69858   -0.94937

