60
frame 0 | Written by MDAnalysis XYZWriter (release 2.4.3)
       H     3.11582   16.74252   -4.27111
       O     2.99711   16.64908   -3.31008
      H1     3.84571   16.40954   -2.95094
       H    -0.18153   10.95163   -3.36481
       O     0.03943   11.44390   -4.17870
      H1     0.55278   10.74837   -4.60333
       H     5.64066   13.14339    0.03658
       O     4.98250   13.61765   -0.51341
      H1     4.33600   12.94397   -0.80845
       H    -0.45480   14.69553   -3.98693
       O    -0.84149   14.01809   -3.41822
      H1    -0.40990   13.21582   -3.70828
       H     1.98830   13.36048   -1.44796
       O     2.50596   12.54257   -1.37405
      H1     2.74930   12.35071   -2.26469
       H     4.24070   15.31674   -8.46447
       O     4.02370   14.52442   -7.95009
      H1     4.59929   13.88450   -8.32643
       H     5.37496   15.03402   -1.62485
       O     5.45504   15.79123   -2.21895
      H1     5.45806   16.54271   -1.59188
       H     4.29740   12.77290   -3.61827
       O     4.04578   11.85304   -3.42639
      H1     3.74967   11.56930   -4.28901
       H     1.65759   16.97792   -5.76659
       O     2.63990   16.96124   -5.92402
      H1     2.70339   17.05353   -6.89149
       H     3.33485   13.70113   -5.40375
       O     2.43286   13.72378   -5.09365
      H1     2.29424   14.64692   -4.77368
       H     5.74642   13.48173   -5.89403
       O     5.22679   14.18923   -5.50434
      H1     4.87543   14.64936   -6.26745
       H    -0.00963   11.65294   -7.30726
       O    -0.91616   11.60473   -6.97536
      H1    -0.78013   11.65865   -6.00445
       H     3.01499   10.37555   -6.70014
       O     3.48826   10.16664   -5.86150
      H1     2.85512    9.60360   -5.37161
       H     1.97319   12.56168   -6.90703
       O     1.64132   11.76722   -7.35763
      H1     2.09395   11.77874   -8.21174
       H     0.32318   14.34507   -2.15748
       O     1.01186   14.82336   -1.72223
      H1     1.48540   15.17493   -2.47693
       H     0.21373   15.50447   -5.97726
       O     0.27541   15.86347   -5.08661
      H1    -0.33870   16.60162   -5.06337
       H     7.00636   12.58521   -7.18181
       O     6.37789   11.94258   -6.84827
      H1     6.59899   11.94407   -5.90456
       H     7.69310   15.62299   -4.71368
       O     7.00505   16.05874   -5.23469
      H1     6.28741   15.37991   -5.20310
       H     7.02286   12.23894   -3.58010
       O     6.66358   11.50971   -4.04294
      H1     5.77452   11.41874   -3.68878
       H     5.63330   10.46364   -7.96798
       O     5.08270    9.84096   -8.47672
      H1     4.80747    9.08681   -7.91790

