60
frame 0 | Written by MDAnalysis XYZWriter (release 2.4.3)
       H   -12.49993    7.59472   -5.96005
       O   -12.31104    8.55240   -5.94238
      H1   -11.33959    8.58555   -5.86750
       H   -12.31203    5.85282   -1.56599
       O   -12.43086    5.05595   -1.03751
      H1   -11.59871    4.56318   -1.23043
       H   -13.18958    5.43162   -6.82770
       O   -12.90984    5.90350   -6.02426
      H1   -12.31064    5.31080   -5.55968
       H   -15.90643    3.60815   -7.35334
       O   -16.03381    2.67106   -7.58103
      H1   -15.82078    2.24680   -6.75056
       H   -10.64786    4.18519   -3.12868
       O   -10.40450    3.66715   -2.34057
      H1    -9.72371    4.20300   -1.93563
       H   -13.59897    3.82519   -1.94999
       O   -13.63260    3.09129   -2.57781
      H1   -14.42634    3.23707   -3.13637
       H   -16.11551    5.18674   -5.80721
       O   -16.43247    5.24539   -6.74317
      H1   -17.35716    4.95216   -6.63193
       H   -13.74196    8.80865   -4.98835
       O   -14.12021    8.92250   -4.10476
      H1   -15.06889    9.07761   -4.30779
       H   -14.75518    5.49350   -3.72003
       O   -14.93388    5.00514   -4.52868
      H1   -14.21781    5.42913   -5.05268
       H   -12.83210    2.16876   -4.73992
       O   -12.46010    1.50145   -5.29338
      H1   -11.61614    1.30588   -4.89557
       H   -10.10852    4.99090   -7.90351
       O   -10.06025    4.11303   -7.47949
      H1   -10.50240    3.57801   -8.14337
       H   -11.14243    6.31058   -3.78521
       O   -10.77283    5.48863   -4.12679
      H1    -9.84900    5.70266   -4.27465
       H   -12.18597    1.98471   -7.19176
       O   -11.76326    1.79783   -8.02927
      H1   -11.34155    0.94454   -7.87087
       H    -7.58050    6.67642   -4.42071
       O    -8.07823    5.99033   -4.88792
      H1    -7.44247    5.23247   -4.91259
       H   -14.43836    7.45165   -2.84913
       O   -14.85217    6.73048   -2.32627
      H1   -14.32130    6.75881   -1.54676
       H   -13.75933    6.51711   -9.84280
       O   -13.41282    6.92333   -9.05451
      H1   -14.04689    7.64273   -8.89692
       H   -11.68962    8.47360   -1.39278
       O   -11.45498    7.70990   -1.93240
      H1   -10.50967    7.74964   -1.86306
       H   -13.97093    3.16710   -8.36697
       O   -13.55789    4.00370   -8.23249
      H1   -13.99052    4.60269   -8.87175
       H   -10.51312    8.38540   -8.02663
       O   -10.70172    7.48893   -8.35635
      H1   -11.63296    7.44434   -8.51540
       H   -15.64752    3.21715   -4.63884
       O   -15.28302    2.33701   -4.79792
      H1   -15.80181    1.77325   -4.19534

