60
frame 0 | Written by MDAnalysis XYZWriter (release 2.4.3)
       H     2.89002   16.17861  -17.60177
       O     2.75297   16.24058  -18.55688
      H1     2.72298   17.18439  -18.73013
       H     0.43986   12.30859  -15.87641
       O     0.08672   12.71635  -16.69481
      H1    -0.60899   12.09417  -16.99906
       H     3.05566   19.40298  -17.76678
       O     2.19885   18.96424  -17.84390
      H1     2.09353   18.50905  -17.01216
       H    -0.93329   12.70872  -12.36607
       O    -1.23767   12.33344  -13.17187
      H1    -1.49449   13.07428  -13.78525
       H    -6.34199   16.34935  -16.69192
       O    -7.16892   16.80445  -16.91227
      H1    -7.80736   16.13437  -17.11595
       H    -3.98303   13.01494  -16.94485
       O    -3.14771   13.44808  -16.89416
      H1    -3.15445   13.82605  -15.99927
       H    -0.71079   16.98894  -16.81301
       O    -0.75937   17.92479  -16.63801
      H1    -0.51085   18.33804  -17.46073
       H     1.47660   12.61332  -17.96044
       O     2.06906   12.22172  -18.60667
      H1     2.92925   12.65189  -18.45833
       H    -3.58461   16.42190  -18.41516
       O    -4.29592   16.96506  -18.08276
      H1    -4.26954   16.80098  -17.13658
       H    -5.23178   11.36752  -15.99082
       O    -5.49761   11.88273  -16.77655
      H1    -5.19797   11.34850  -17.50245
       H    -0.06909   18.07383  -12.66184
       O     0.07947   17.17705  -12.97349
      H1     0.66277   17.31380  -13.74661
       H    -2.19246   18.54391  -19.52151
       O    -2.58575   18.96897  -18.75012
      H1    -3.11887   18.29691  -18.34952
       H     1.79113   12.51575  -14.26273
       O     1.10097   11.86494  -14.28482
      H1     0.40410   12.23084  -13.72524
       H    -5.30235   15.70005  -14.67837
       O    -4.69192   15.94052  -15.39597
      H1    -4.09771   16.59707  -15.02089
       H    -3.75197   19.35880  -16.14017
       O    -3.22198   18.71792  -15.65808
      H1    -2.44023   18.64209  -16.22051
       H    -2.08411   15.30099  -14.00754
       O    -2.07332   14.53644  -14.61253
      H1    -1.80813   14.93671  -15.43293
       H    -1.50809   15.14199  -17.81649
       O    -1.02637   15.31873  -17.00726
      H1    -0.68897   14.44583  -16.67980
       H    -2.18156    9.41411  -17.35394
       O    -2.45881    8.51302  -17.68084
      H1    -2.62183    7.98073  -16.86171
       H    -2.43084   11.77415  -16.19064
       O    -2.12637   10.85100  -16.06876
      H1    -2.17192   10.75010  -15.11104
       H     4.43422   15.85011  -15.85158
       O     3.51180   16.18150  -15.96469
      H1     2.98098   15.63108  -15.35142

