60
frame 0 | Written by MDAnalysis XYZWriter (release 2.4.3)
       H   -10.91357    9.73583  -14.88353
       O   -11.12299    9.49808  -13.97322
      H1   -10.50973    8.75593  -13.84027
       H   -15.91635    8.94888  -11.50840
       O   -15.20573    9.10448  -12.15088
      H1   -14.75457    9.85855  -11.74799
       H   -15.41707    8.89468   -8.13509
       O   -14.59228    9.24777   -8.49044
      H1   -14.11475    9.44988   -7.64870
       H   -13.06303    6.77218  -12.24588
       O   -13.87399    6.83012  -12.73893
      H1   -14.20999    7.72449  -12.56645
       H   -15.25678   13.66501  -14.23954
       O   -14.39635   13.94283  -13.90802
      H1   -14.43601   14.88662  -13.85319
       H   -14.45210    9.34005  -16.34874
       O   -14.95120    8.65655  -16.84351
      H1   -15.83047    8.57331  -16.42025
       H   -10.67583   11.65464  -11.10155
       O   -10.33684   11.08977  -10.43210
      H1   -10.08391   11.63457   -9.67797
       H   -12.56995   14.02724  -11.64502
       O   -13.42969   13.84533  -11.24344
      H1   -13.98829   13.84975  -12.03060
       H   -14.71857    5.84046  -11.52950
       O   -14.76524    5.33341  -10.70234
      H1   -15.73003    5.19489  -10.56025
       H   -14.11943    7.20078  -16.12940
       O   -13.88464    6.51972  -15.47781
      H1   -13.75815    7.01384  -14.66763
       H   -12.67807    9.80912  -15.09156
       O   -12.82155   10.29252  -15.92977
      H1   -12.45053   11.19284  -15.74520
       H   -19.38910    9.20511  -13.04677
       O   -18.75675    8.47246  -12.97712
      H1   -19.10082    7.84047  -13.59418
       H   -18.06696   11.18822  -11.50242
       O   -17.42811   11.70838  -12.03318
      H1   -17.37041   11.18995  -12.86102
       H   -13.75933    6.51711   -9.84280
       O   -13.41282    6.92333   -9.05451
      H1   -14.04689    7.64273   -8.89692
       H   -16.61130    7.06470   -7.39125
       O   -16.85645    7.89395   -7.82740
      H1   -17.04216    7.69283   -8.73590
       H   -13.89322   10.72776   -9.90060
       O   -13.72542   10.95131  -10.81869
      H1   -12.83118   11.37986  -10.76914
       H   -16.21985    9.81929  -13.65737
       O   -16.70975   10.35133  -14.35932
      H1   -17.40382    9.75006  -14.64217
       H   -16.46723   12.07010  -10.58378
       O   -16.24823   12.34117   -9.66541
      H1   -15.24756   12.30776   -9.65935
       H   -17.82797    8.98796  -10.60208
       O   -17.24385    8.22549  -10.62693
      H1   -17.47668    7.72090  -11.43301
       H   -10.84257   11.03292  -13.00338
       O   -10.79212   12.02333  -12.96994
      H1   -11.48253   12.24028  -13.59523

