60
frame 9 | Written by MDAnalysis XYZWriter (release 2.4.3)
       H    -0.74004  -17.18577    3.09380
       O     0.19679  -17.22912    3.23583
      H1     0.61608  -16.47814    2.85087
       H     1.11953  -13.62263    8.03711
       O     1.59450  -13.10869    8.70985
      H1     2.04725  -12.25178    8.30631
       H     0.78602  -14.88307    1.61669
       O     1.51726  -14.95894    2.29569
      H1     2.35351  -15.15717    1.78462
       H    -0.93126  -13.27106    4.90686
       O    -0.37650  -12.63126    5.34142
      H1     0.55213  -12.72278    5.07969
       H    -2.05973  -16.29428    8.97292
       O    -2.33261  -15.39562    8.65689
      H1    -2.46840  -15.44534    7.71345
       H     4.09092  -17.51031    7.04679
       O     4.76854  -17.16962    7.65177
      H1     4.84196  -17.92194    8.24382
       H    -2.48091  -17.71566    4.40265
       O    -2.36663  -18.19530    5.18825
      H1    -1.52075  -17.78222    5.56288
       H     2.56566  -18.45951    0.51967
       O     3.51560  -18.26002    0.42441
      H1     3.81655  -18.61147   -0.45172
       H     3.21192  -17.63362    5.15450
       O     2.81405  -18.18554    5.84811
      H1     1.98315  -17.79143    6.04985
       H    -1.08739  -14.80664    0.36875
       O    -1.37668  -15.73589    0.50587
      H1    -0.98467  -16.34114   -0.12196
       H    -2.39936  -16.11158    1.95829
       O    -2.62767  -16.46851    2.84182
      H1    -2.88058  -15.67714    3.37238
       H    -0.60039  -14.78247    7.93006
       O     0.02076  -14.78180    7.21814
      H1    -0.17634  -13.95436    6.76696
       H    -3.91266  -17.97671    2.20608
       O    -4.38851  -18.75076    2.45527
      H1    -5.12836  -18.48425    2.99916
       H    -0.38271  -18.29191    7.68228
       O    -0.78312  -18.61994    8.53188
      H1    -1.13940  -19.52899    8.29885
       H     5.33027  -15.72712    3.69642
       O     4.66821  -16.41555    3.43656
      H1     4.25492  -16.12066    2.60700
       H     2.98681  -12.61324    5.57417
       O     2.35296  -12.76632    4.90286
      H1     2.52750  -13.65682    4.52671
       H     0.79219  -18.28308    2.14007
       O     0.95406  -18.81986    1.29018
      H1     1.33440  -19.67952    1.54705
       H    -0.04545  -16.46215    6.46479
       O    -0.04754  -17.27964    5.91710
      H1     0.08114  -17.04984    4.94329
       H    -2.93462  -13.80363    3.45096
       O    -2.62332  -14.19049    4.31001
      H1    -3.10231  -13.79121    5.08297
       H    -3.27486  -19.05713    6.46518
       O    -3.78349  -19.64793    6.99674
      H1    -3.09574  -20.15278    7.46079

