60
frame 0 | Written by MDAnalysis XYZWriter (release 2.4.3)
       H    14.80457   -5.69778   10.63591
       O    15.68054   -5.41390   10.28819
      H1    16.20043   -6.21002   10.37400
       H    15.87075   -5.30870   12.85309
       O    15.80959   -4.71110   13.61298
      H1    16.30623   -5.14209   14.31220
       H    17.49918   -7.75298    9.15847
       O    17.75519   -7.31628    9.99569
      H1    18.54031   -6.84277    9.78388
       H    14.41328   -8.30149   11.56204
       O    14.11989   -7.66806   10.91932
      H1    13.41194   -8.12309   10.43831
       H    14.60147  -11.22163   10.45599
       O    14.88620  -11.60587    9.61172
      H1    14.83335  -10.88483    8.99551
       H    18.23227  -10.16840   18.23058
       O    17.38457   -9.67313   18.33050
      H1    17.30556   -9.33957   17.42736
       H    15.55399   -9.08547   13.40052
       O    15.09699   -8.22613   13.53051
      H1    15.74481   -7.65296   13.98528
       H    18.67520  -11.82925   14.33573
       O    18.21070  -11.38151   15.02547
      H1    18.53038  -11.87364   15.80164
       H    13.25076  -10.03885   11.62033
       O    14.18613  -10.32701   11.68481
      H1    14.19616  -11.04399   12.30888
       H    14.89835  -15.53213   14.81536
       O    15.76002  -15.09456   14.97216
      H1    15.64548  -14.17295   14.66985
       H    15.09641  -12.68705   13.29036
       O    15.90738  -12.95198   12.86872
      H1    16.25568  -12.07071   12.60294
       H    17.84768  -10.26635   12.35225
       O    17.01661  -10.44338   12.81453
      H1    17.35294  -10.85349   13.65091
       H    17.94288  -13.66737    9.89614
       O    17.27757  -14.26843    9.49982
      H1    16.50141  -13.69421    9.39378
       H    18.11497  -16.17235   13.03484
       O    18.11044  -15.75559   13.89556
      H1    17.18959  -15.44600   13.99927
       H    13.31063   -7.41663   13.94590
       O    12.73348   -6.95226   14.58050
      H1    13.37293   -6.76977   15.30345
       H    13.86487  -10.72169   16.62029
       O    13.30682  -11.43797   16.30000
      H1    12.42359  -11.03546   16.23728
       H    13.74705  -13.06700   10.13564
       O    12.93064  -13.51945   10.37697
      H1    12.68550  -14.02008    9.58923
       H    13.50724  -11.96638   14.55633
       O    13.58744  -12.26316   13.64722
      H1    12.73394  -12.60884   13.39035
       H    17.84190   -7.22364   13.95408
       O    17.20476   -7.02816   14.67342
      H1    17.60905   -7.47463   15.42683
       H    14.77372   -9.18747   15.24494
       O    14.94433   -9.20314   16.19796
      H1    14.43937   -8.45885   16.51301

