60
frame 0 | Written by MDAnalysis XYZWriter (release 2.4.3)
       H    10.62827   -9.02398  -10.18400
       O    11.42778   -9.40507  -10.54473
      H1    11.48448   -9.00447  -11.37805
       H    15.55818  -10.67784   -7.73353
       O    15.48494  -10.07203   -8.49750
      H1    14.70074  -10.42123   -8.90270
       H    17.10203  -10.44786   -9.27506
       O    17.90484  -10.45656   -9.83540
      H1    18.41782  -11.19702   -9.48610
       H    12.99092  -12.01999   -9.73709
       O    12.92188  -11.29397   -9.08412
      H1    12.29321  -10.69214   -9.50109
       H    17.47176   -8.73660   -5.86464
       O    17.57555   -9.57911   -6.29682
      H1    18.32575   -9.40575   -6.91565
       H    18.69513   -7.53551  -12.30288
       O    18.74945   -7.21541  -13.23773
      H1    18.57170   -6.23364  -13.14524
       H    13.03039   -6.83402  -13.24062
       O    13.52542   -6.17815  -13.76391
      H1    14.38558   -6.39972  -13.46824
       H    15.66031  -11.59261  -11.78377
       O    15.72659  -12.51843  -11.51003
      H1    15.53731  -13.02387  -12.27967
       H    16.91076   -5.02656   -8.93176
       O    15.96752   -4.88288   -9.13984
      H1    15.90428   -4.15997   -9.79092
       H    14.32546  -11.52980   -6.05167
       O    15.19535  -11.80004   -6.39440
      H1    15.78518  -11.51438   -5.69577
       H    10.49094   -7.98237   -6.81691
       O    11.41501   -8.07893   -6.51180
      H1    11.92805   -7.70699   -7.23747
       H    11.79296   -8.02140   -9.40606
       O    12.20862   -7.22370   -9.09225
      H1    13.11009   -7.37461   -9.34890
       H    18.46598   -8.77999  -10.27002
       O    18.65021   -7.87033  -10.53378
      H1    18.66107   -7.43203   -9.66588
       H    17.11713   -7.31491   -4.43743
       O    16.86192   -7.02109   -5.34467
      H1    16.00460   -7.39077   -5.51220
       H    15.39251   -7.67460  -11.67351
       O    15.74187   -7.63897  -12.58136
      H1    16.52619   -7.07523  -12.52820
       H    15.39913   -6.89247   -9.57293
       O    15.02076   -7.67934   -9.99012
      H1    15.25952   -8.43496   -9.44654
       H    14.46036   -5.07785   -7.85671
       O    13.77328   -5.25016   -7.19185
      H1    13.87829   -6.17223   -6.95320
       H    17.01969   -9.90864  -11.45469
       O    16.63622  -10.06906  -12.32683
      H1    16.25362   -9.24364  -12.55985
       H    18.55204   -5.16316   -7.69544
       O    18.12164   -6.00398   -7.97060
      H1    17.85857   -6.36319   -7.08681
       H    14.33918   -8.18793   -5.62392
       O    14.58092   -7.88195   -6.53577
      H1    14.71302   -8.69486   -7.02980

