60
frame 9 | Written by MDAnalysis XYZWriter (release 2.4.3)
       H     7.26149   16.91607    7.66306
       O     7.37325   15.94319    7.73869
      H1     6.78244   15.62291    7.04589
       H    -3.39677   15.66821    8.23087
       O    -2.85911   15.49371    8.99266
      H1    -2.33503   14.61610    8.79126
       H     1.98944   18.28748    4.47086
       O     1.62105   18.83132    5.17679
      H1     2.16032   19.63157    5.19443
       H     4.84117   17.21988   11.98354
       O     4.37833   17.84564   11.36034
      H1     3.90588   17.25088   10.79005
       H     2.19026   15.84556    6.91126
       O     2.90946   16.46110    6.70022
      H1     2.53674   17.22655    6.31372
       H    -1.31619   18.07352    4.99207
       O    -0.71222   17.64119    5.63379
      H1     0.00797   18.28986    5.41256
       H     5.35614   14.65135    2.64623
       O     5.00783   15.49721    2.23931
      H1     4.23763   15.67176    2.77420
       H     4.04307   12.45960    7.43642
       O     3.10599   12.33301    7.68227
      H1     3.16870   11.88682    8.55914
       H     0.86834   14.33234    6.29430
       O     0.96730   14.30207    7.27652
      H1     1.67037   13.64604    7.37802
       H    -1.66864   14.87431    3.42353
       O    -0.85650   15.39382    3.40787
      H1    -0.95784   15.95063    4.13762
       H    -2.15142   13.66370    7.13527
       O    -1.59569   13.50171    7.90727
      H1    -0.67551   13.68298    7.72294
       H     0.45627   15.45072   11.72982
       O     1.34208   15.19972   11.98095
      H1     1.27439   14.28938   12.32266
       H     5.92400   17.20165    3.30373
       O     6.38022   17.34705    4.18760
      H1     5.97706   16.60917    4.62470
       H     2.50145   15.39390   10.27876
       O     3.25352   15.86502    9.83254
      H1     2.94805   16.16418    8.92366
       H     5.44998   12.68442    5.11906
       O     5.43929   12.88863    6.06555
      H1     5.99091   12.40788    6.62309
       H     1.95316   16.62206    2.45353
       O     2.43649   16.57566    3.33384
      H1     1.91277   16.08063    3.95184
       H     6.62923   15.39977    9.53109
       O     5.97947   15.22870   10.23304
      H1     5.21152   15.52888    9.84542
       H     5.43725   14.54743    5.87511
       O     5.37226   15.51404    5.93389
      H1     4.38649   15.74117    6.08063
       H     0.50180   12.50473    4.20322
       O     0.78199   13.41351    4.26713
      H1     0.14173   13.94449    3.78115
       H    -1.41895   17.83405    7.23914
       O    -1.83634   18.09544    8.08392
      H1    -2.24545   17.31787    8.48784

