60
frame 0 | Written by MDAnalysis XYZWriter (release 2.4.3)
       H     7.53761    1.89440   -6.34245
       O     6.69794    1.52523   -6.63346
      H1     6.16902    2.29251   -6.88547
       H     3.43675    1.75004   -8.91611
       O     4.29319    1.72146   -8.51133
      H1     4.52317    0.79992   -8.50759
       H     4.66492   -2.29227   -4.13789
       O     4.08890   -3.00815   -3.84827
      H1     3.93872   -3.44913   -4.68114
       H     7.48390    2.09304   -9.64703
       O     7.63041    3.01240   -9.88038
      H1     8.54325    3.01223  -10.18239
       H     5.94343    1.48087   -4.82613
       O     5.71087    1.10470   -3.94798
      H1     4.79036    1.37993   -3.77952
       H     4.92477   -0.97809   -9.05698
       O     4.42183   -1.06697   -9.86947
      H1     3.75365   -1.72976   -9.63516
       H     6.36515   -2.34936  -12.48103
       O     6.35254   -1.54123  -11.96473
      H1     5.64756   -1.69353  -11.32974
       H     2.98358    4.07465   -7.08124
       O     3.39747    3.40360   -6.52580
      H1     3.70930    2.78460   -7.18631
       H     4.52314   -4.34866   -7.58836
       O     3.90791   -4.86832   -8.12371
      H1     3.28559   -5.15184   -7.46214
       H     7.21121    4.18746   -7.01279
       O     6.57502    4.24482   -7.74761
      H1     7.09132    3.75464   -8.39303
       H     5.69512   -1.82016   -5.46368
       O     6.15389   -1.47182   -4.68716
      H1     5.89526   -0.55977   -4.67924
       H     6.81473   -3.65994   -7.67541
       O     6.07141   -3.48869   -7.07334
      H1     6.11620   -4.10333   -6.31272
       H     1.51823    0.10853   -6.70014
       O     2.08363   -0.44483   -6.18198
      H1     2.84419   -0.57308   -6.73058
       H     5.92201   -0.22366   -7.17660
       O     5.24280   -0.90240   -7.30270
      H1     5.75829   -1.69855   -7.41227
       H     8.06027   -1.31680   -4.97542
       O     8.79783   -0.74614   -5.25043
      H1     9.38706   -1.39742   -5.66888
       H     8.14412   -1.13692   -8.69799
       O     8.37039   -1.54502   -7.83409
      H1     8.32020   -0.82993   -7.19511
       H     1.35380   -2.48424   -8.99529
       O     2.31476   -2.52760   -8.97652
      H1     2.54200   -3.41741   -8.67419
       H     9.99591   -1.93723   -8.58866
       O    10.71275   -2.43607   -8.97539
      H1    10.73172   -3.21272   -8.42313
       H     9.15837    0.26615  -10.20020
       O     8.22751    0.14792   -9.96383
      H1     7.91217   -0.35952  -10.74339
       H     2.86500    0.86376   -4.95319
       O     3.01878    1.66733   -4.46225
      H1     2.89009    2.36824   -5.12521

