60
frame 0 | Written by MDAnalysis XYZWriter (release 2.4.3)
       H    -7.14358    1.52628  -17.19292
       O    -7.74278    1.22726  -16.47004
      H1    -7.82878    0.25297  -16.66365
       H    -4.30060    4.10436  -19.72556
       O    -3.70366    4.64120  -19.26224
      H1    -3.25995    3.99459  -18.67909
       H    -6.78412    5.59513  -15.98458
       O    -6.70135    6.48630  -15.59747
      H1    -6.58299    6.26199  -14.64387
       H    -4.40309    7.96353  -14.52769
       O    -4.95473    8.70014  -14.72462
      H1    -5.46531    8.27469  -15.35446
       H   -10.93351    7.73047  -15.70112
       O   -10.66261    8.61074  -15.93461
      H1   -11.45232    8.92064  -16.33121
       H    -2.24729   10.21566  -17.02712
       O    -2.41414    9.87963  -16.08697
      H1    -3.38305    9.79328  -16.13913
       H    -4.81483    9.84341  -17.74710
       O    -5.08568   10.67961  -17.36209
      H1    -6.02052   10.46787  -17.08337
       H    -9.16182    8.40654  -16.40581
       O    -8.25897    8.23530  -16.69230
      H1    -7.94169    7.63358  -15.98452
       H    -8.06625   10.14749  -16.27784
       O    -7.78412   11.05821  -16.59962
      H1    -8.02747   11.60931  -15.78686
       H   -12.51126    9.48665  -19.21909
       O   -12.08577    9.64024  -18.35939
      H1   -11.19722    9.83804  -18.63812
       H    -7.11184    4.85257  -12.69931
       O    -6.80443    5.72979  -12.97406
      H1    -7.64778    6.22600  -13.16700
       H    -6.41210    7.54726  -18.93158
       O    -7.28824    7.11786  -18.94515
      H1    -7.67335    7.41267  -18.08617
       H    -7.63901    4.23400  -17.56304
       O    -6.65562    4.43999  -17.72098
      H1    -6.71403    5.26877  -18.24149
       H   -11.13947    5.69167  -15.04203
       O   -11.37842    6.39267  -14.43863
      H1   -10.58595    6.64221  -13.93236
       H    -8.46646   11.98541  -18.02093
       O    -8.34758   12.40365  -18.90444
      H1    -9.31898   12.67950  -19.10642
       H    -9.70094    3.59471  -16.83115
       O    -9.35920    4.05399  -17.60452
      H1    -9.95428    4.83302  -17.58537
       H   -11.87073    5.96117  -17.91094
       O   -11.02244    6.23339  -17.46556
      H1   -10.61352    6.72808  -18.13565
       H    -4.10235    7.63224  -18.63276
       O    -4.80126    7.77397  -17.99068
      H1    -4.85641    6.94738  -17.45321
       H   -11.88806    2.18864  -19.74253
       O   -11.39890    3.05283  -19.76172
      H1   -10.98618    3.10036  -18.86486
       H    -6.28850    2.90037  -18.57165
       O    -6.03219    2.07757  -19.02873
      H1    -6.44613    2.13104  -19.94402

