60
frame 0 | Written by MDAnalysis XYZWriter (release 2.4.3)
       H    -8.95754    9.88113   -0.54505
       O    -9.14681   10.53654    0.13096
      H1    -8.30644   10.94573    0.30233
       H    -7.04476   13.54590   -0.63636
       O    -7.27827   14.18771   -1.30478
      H1    -7.84639   14.80092   -0.79318
       H    -3.79502   10.15800   -4.44730
       O    -4.34741   10.87603   -4.04654
      H1    -5.25397   10.51771   -4.04636
       H    -3.91999   12.00662   -1.07994
       O    -4.41557   11.23312   -1.31754
      H1    -4.15961   11.11467   -2.22728
       H    -7.26721    9.51946    3.12771
       O    -6.52274    9.38042    2.58810
      H1    -6.89138    8.93205    1.84569
       H    -4.38302    6.14736    0.02013
       O    -4.83078    5.52692   -0.56982
      H1    -5.07197    4.82711    0.03021
       H    -8.37293   12.92198   -2.08321
       O    -8.93123   12.15770   -2.17824
      H1    -8.94411   11.73734   -1.30135
       H    -5.94135    7.53760   -4.03210
       O    -6.78548    7.93655   -3.72253
      H1    -7.07841    8.55284   -4.41544
       H    -7.22015   12.77526    1.70050
       O    -7.17400   12.33229    0.82561
      H1    -6.35899   11.83884    0.74520
       H    -6.78200   11.97606   -4.25055
       O    -7.05496   11.03240   -4.21642
      H1    -7.96758   11.08898   -3.90314
       H    -4.05915    6.51614   -4.68370
       O    -4.20246    7.12651   -3.93981
      H1    -3.75117    6.68687   -3.19352
       H    -2.87895    7.74728   -1.57763
       O    -1.98375    7.67614   -1.89188
      H1    -1.90144    6.76698   -2.20211
       H    -2.54115    7.71244    0.97429
       O    -2.91698    6.85734    0.78922
      H1    -2.15520    6.37940    0.46029
       H    -6.76948    6.54056    1.01554
       O    -6.75935    7.46734    0.74507
      H1    -6.39461    7.42042   -0.13080
       H    -6.37858    4.28851   -3.14629
       O    -6.73240    4.56734   -2.28203
      H1    -6.02783    4.96473   -1.73112
       H    -3.02929   10.15556    1.66643
       O    -2.50602    9.37246    1.44387
      H1    -1.64318    9.76139    1.19074
       H    -2.92580    8.37351   -4.45238
       O    -2.21453    8.98354   -4.71036
      H1    -1.95997    9.33930   -3.83315
       H    -3.22252   11.40030    2.78010
       O    -4.02125   11.56202    2.23932
      H1    -4.70652   11.36995    2.86908
       H    -8.50774    7.54151   -0.95735
       O    -8.77472    8.19815   -1.61196
      H1    -8.08787    8.27187   -2.25877
       H    -5.81420    8.77501   -2.29609
       O    -5.42364    8.65606   -1.40741
      H1    -5.40892    9.55638   -1.06016

