60
frame 0 | Written by MDAnalysis XYZWriter (release 2.4.3)
       H   -12.53815    2.46938    9.84560
       O   -11.91238    1.74602    9.94189
      H1   -12.46957    1.12074   10.45911
       H   -15.92313    6.43082   13.99462
       O   -16.15558    5.60820   13.47494
      H1   -16.99244    5.37146   13.90581
       H   -11.74235    3.25498   15.18274
       O   -12.31507    3.99292   14.92227
      H1   -12.94385    4.04332   15.65364
       H    -9.29394    3.75099    9.46892
       O    -9.75440    3.23024    8.81187
      H1   -10.50765    2.89904    9.29177
       H   -12.87995    4.51979    9.42645
       O   -13.39132    4.06800    8.73932
      H1   -13.21268    4.66089    8.00632
       H   -10.39661    6.36597    8.84989
       O    -9.64598    6.52256    8.23227
      H1   -10.06367    6.66709    7.36877
       H   -15.32003    4.04990   12.86862
       O   -15.04355    3.14489   12.55650
      H1   -14.35552    3.37856   11.93454
       H   -12.51912   -0.66723   12.17408
       O   -13.14087    0.02984   11.92181
      H1   -13.27570    0.56070   12.72856
       H   -12.41968    7.30155    9.28750
       O   -12.00476    6.44320    9.43217
      H1   -11.85028    6.42066   10.35908
       H   -16.34187    4.92935    8.75370
       O   -16.23045    3.95671    8.74795
      H1   -15.28279    3.90042    8.70514
       H   -13.60160    2.11517   14.50088
       O   -13.29161    1.20052   14.43064
      H1   -12.33400    1.27020   14.52004
       H   -14.49038    7.45795   11.78230
       O   -15.07817    6.85855   11.34608
      H1   -15.64652    6.57737   12.05305
       H   -12.73074    2.15672    7.17862
       O   -12.80440    1.21043    7.35790
      H1   -12.78082    1.21754    8.31425
       H   -16.43182    2.01893   12.88849
       O   -16.93975    1.48712   13.54177
      H1   -17.42315    0.90758   12.98394
       H   -12.33400    5.46414   13.61755
       O   -12.15487    6.36011   13.33297
      H1   -11.20254    6.34958   13.20431
       H   -13.07524    4.91054   11.70507
       O   -12.72317    4.03886   11.49439
      H1   -12.00510    3.89069   12.12335
       H    -9.59024    2.69543   12.51531
       O   -10.19118    3.15075   11.90291
      H1   -10.52815    2.40611   11.34683
       H    -9.21246    6.12406   11.31843
       O    -9.98365    5.82140   11.80124
      H1    -9.97685    4.90020   11.60789
       H   -10.36535    1.25740   15.69290
       O   -10.41964    2.04669   15.16710
      H1    -9.56973    2.07184   14.71446
       H   -15.48961    7.04633    7.97801
       O   -16.04977    6.85502    8.74999
      H1   -15.46082    7.07853    9.47049

