60
frame 0 | Written by MDAnalysis XYZWriter (release 2.4.3)
       H     4.97867    7.54394  -14.16748
       O     4.71257    7.45387  -13.25545
      H1     3.94329    8.05423  -13.27369
       H     7.40353   10.38724   -9.80444
       O     7.07043   11.17761  -10.19990
      H1     6.97289   11.73748   -9.39929
       H     3.83037   10.66813  -12.05102
       O     4.05058   11.01969  -12.92690
      H1     4.99683   11.09888  -12.94223
       H     6.86218    9.13277  -12.76869
       O     6.75129    9.96065  -13.29260
      H1     7.64749    9.93954  -13.59991
       H    11.43299    9.06913  -13.35355
       O    10.80005    8.38783  -13.51491
      H1    10.95778    8.05547  -14.40499
       H    10.21378   10.18429  -16.21365
       O    10.78193    9.76583  -16.88604
      H1    10.57936   10.36179  -17.65703
       H     7.45193   12.57769  -15.23501
       O     7.96150   13.38215  -15.32773
      H1     8.65495   13.28790  -16.00414
       H     9.38837    7.19032  -16.99928
       O     8.78091    7.92830  -16.64246
      H1     9.30783    8.67088  -16.91045
       H     8.69338    7.50901  -11.28520
       O     9.35520    6.86287  -11.02436
      H1    10.20529    7.19801  -11.46327
       H     6.51413    6.50125  -14.90257
       O     6.04707    6.93342  -15.64006
      H1     6.60635    7.59547  -16.06610
       H     1.80777    9.43190  -14.14424
       O     2.67665    8.96911  -14.25121
      H1     3.30323    9.63711  -13.83187
       H     3.86743   11.12283   -9.95290
       O     4.21727   10.30218  -10.28669
      H1     5.16449   10.42315  -10.20923
       H     9.78504    9.84649  -13.89612
       O     9.29766   10.57520  -14.39869
      H1     9.60955   11.37852  -13.86542
       H     5.78792    8.00631  -11.72076
       O     6.68145    7.99283  -11.34424
      H1     6.48818    8.50708  -10.53367
       H     5.14235   13.77893  -17.39797
       O     5.37064   12.90214  -16.98549
      H1     4.91573   12.91125  -16.13499
       H     9.30634   12.96189  -11.24279
       O     9.75685   12.50062  -10.53345
      H1     9.06342   11.89198  -10.22482
       H     8.26727   13.15345  -13.45985
       O     8.12319   13.07167  -12.50002
      H1     7.18136   13.11344  -12.29522
       H     4.71398    5.80370  -12.33590
       O     4.59407    4.86836  -12.15223
      H1     5.08270    4.49953  -12.93147
       H     4.93834    9.74291  -16.49608
       O     4.32351    9.70446  -17.22787
      H1     4.74657   10.32406  -17.87753
       H     3.61946   13.24504  -12.91379
       O     4.11838   14.02728  -13.10228
      H1     4.77512   14.07176  -12.41875

