60
frame 0 | Written by MDAnalysis XYZWriter (release 2.4.3)
       H   -16.69887   18.38021  -14.94493
       O   -17.29543   17.75199  -15.36091
      H1   -16.91843   17.51872  -16.19840
       H   -15.37948   15.86632   -7.59483
       O   -15.01805   16.63074   -8.10424
      H1   -15.49729   16.50967   -8.93362
       H   -14.14473   14.60375  -16.75958
       O   -15.02183   15.01060  -16.79755
      H1   -15.58484   14.32628  -16.45067
       H    -9.57267   13.47798  -13.91021
       O    -9.48017   14.41593  -14.12879
      H1    -8.57260   14.61283  -13.80047
       H   -12.78620   15.74949  -16.13489
       O   -12.37363   15.05900  -16.71006
      H1   -11.65657   15.60149  -17.10042
       H   -15.25678   13.66501  -14.23954
       O   -14.39635   13.94283  -13.90802
      H1   -14.43601   14.88662  -13.85319
       H   -16.98393   15.38371  -11.80751
       O   -17.15508   14.81410  -12.58989
      H1   -17.02119   13.87899  -12.32603
       H   -14.91443   16.83028  -17.32876
       O   -15.04791   17.78342  -17.42311
      H1   -14.40802   18.08049  -18.09081
       H   -11.87136   15.46241   -9.21537
       O   -11.10381   15.07817   -8.73782
      H1   -10.35369   15.37646   -9.29271
       H   -12.56995   14.02724  -11.64502
       O   -13.42969   13.84533  -11.24344
      H1   -13.98829   13.84975  -12.03060
       H   -10.17038   18.33088  -10.82115
       O   -10.62579   17.85504  -11.54570
      H1   -11.45219   18.37550  -11.56130
       H   -13.19089   17.55164  -13.09220
       O   -13.42630   17.93444  -12.25869
      H1   -13.42948   17.19156  -11.62406
       H   -10.26091   18.24043  -13.31028
       O   -10.17434   18.90447  -14.00611
      H1   -10.54046   18.44454  -14.76981
       H   -13.17614   13.13629  -14.75633
       O   -12.32030   12.85830  -15.12679
      H1   -12.13512   13.58370  -15.71189
       H   -15.35029   15.03096  -10.51586
       O   -16.20078   15.06602  -10.05752
      H1   -16.37314   14.14186   -9.79675
       H    -8.98434   16.28274  -10.83088
       O    -8.89011   15.73498  -10.03527
      H1    -8.82115   16.36424   -9.30134
       H   -11.14960   18.99833  -16.69083
       O   -11.12643   18.10418  -16.31780
      H1   -10.40918   17.75289  -16.84285
       H   -13.78490   16.29761   -9.34893
       O   -13.12837   16.26129  -10.02246
      H1   -13.18381   15.38059  -10.42303
       H   -12.56012   17.55138  -15.59621
       O   -13.25291   17.05895  -15.10757
      H1   -14.02919   17.47442  -15.45759
       H   -11.18392   16.05727  -12.01460
       O   -11.44106   15.12881  -12.13685
      H1   -10.98858   14.88638  -12.93225

