60
frame 9 | Written by MDAnalysis XYZWriter (release 2.4.3)
       H   -16.23476    5.35989    7.24994
       O   -15.62857    5.12177    6.49833
      H1   -14.69510    4.99842    6.82446
       H   -13.20817    9.38801   -0.21950
       O   -12.72460    8.68661   -0.65909
      H1   -12.47583    8.15614    0.10969
       H    -9.74268    4.45677    4.78858
       O    -9.22393    4.55098    3.99218
      H1    -8.40266    3.98711    4.13021
       H   -11.25171    4.06188    6.66020
       O   -10.36166    3.75632    6.47596
      H1    -9.72956    4.14902    7.13550
       H   -16.75490    5.73445    3.32971
       O   -16.77121    4.95088    3.86544
      H1   -16.39302    5.28001    4.67774
       H    -9.12479    6.04404    3.15952
       O    -9.08003    6.97288    2.78496
      H1    -8.10599    7.24302    2.67320
       H   -10.92036    7.71841    5.53449
       O   -11.48499    6.85662    5.49039
      H1   -12.39601    7.25872    5.37200
       H   -15.58511    3.79090    0.75456
       O   -15.70079    4.69987    0.45506
      H1   -15.16932    4.79010   -0.34707
       H   -13.24378    5.01631    2.86820
       O   -13.75134    5.81433    2.48004
      H1   -14.49365    5.34822    2.05836
       H   -10.97118    3.64884    0.68166
       O   -10.70830    3.39177   -0.21179
      H1   -10.78321    4.16798   -0.74784
       H   -13.83877    6.35516    4.40463
       O   -14.16685    6.86824    5.14060
      H1   -14.65641    6.19352    5.66353
       H   -12.31307    0.73341   -0.49912
       O   -12.80324    1.55137   -0.35792
      H1   -12.20121    2.27797   -0.45989
       H   -14.30702    7.59728    1.96100
       O   -14.91937    8.37833    1.92602
      H1   -15.50109    8.07745    1.20429
       H   -15.57949    7.72984    4.70156
       O   -16.41648    8.22035    4.69165
      H1   -16.72920    8.16072    3.81654
       H   -10.63874    3.85921    2.89337
       O   -11.47363    3.70208    2.43702
      H1   -11.53289    2.73847    2.46811
       H   -14.00446    2.16644    0.74033
       O   -14.53022    2.40856    1.50131
      H1   -15.06754    1.61541    1.59054
       H   -12.13803    6.26434    1.75398
       O   -11.55415    6.81727    1.23188
      H1   -10.67668    6.73097    1.64979
       H   -10.18761    6.34629   -1.24791
       O   -10.89914    5.71422   -1.22321
      H1   -11.35833    6.00875   -0.36108
       H   -16.95454    6.02632    0.74644
       O   -17.39272    6.84073    0.97656
      H1   -17.37106    7.39606    0.19845
       H   -12.64290    5.30978    7.62670
       O   -13.15059    4.56987    7.26913
      H1   -13.07232    3.89573    7.97227

