60
frame 9 | Written by MDAnalysis XYZWriter (release 2.4.3)
       H   -16.47892   -6.13625    9.29641
       O   -16.84971   -6.79357    8.66960
      H1   -17.29269   -6.27947    8.02167
       H   -17.87264   -9.70778   11.34914
       O   -17.75556  -10.58341   11.82475
      H1   -18.69635  -10.81754   12.01837
       H   -12.79541   -7.65600    9.22935
       O   -13.59281   -8.21073    9.45277
      H1   -14.39921   -7.70549    9.25546
       H   -17.57256   -7.68829   10.01200
       O   -18.01064   -7.80415   10.89084
      H1   -18.91868   -7.71783   10.54058
       H   -17.49630   -9.99667    8.13282
       O   -16.91587   -9.34239    7.68663
      H1   -17.05179   -8.43221    8.06937
       H   -15.05340   -4.91198   10.94053
       O   -14.82981   -5.30025   10.06446
      H1   -14.16921   -4.67559    9.69722
       H   -16.93154   -7.44733   13.96578
       O   -17.24721   -6.72269   13.37349
      H1   -17.14939   -7.14125   12.49757
       H   -14.27542  -11.17214   10.84880
       O   -13.70980  -10.94920   10.07546
      H1   -13.85062  -10.02134    9.79760
       H   -19.01560  -12.08031    5.50924
       O   -18.87870  -11.11764    5.60991
      H1   -19.75309  -10.78623    5.32549
       H   -14.52462   -7.83951    6.07977
       O   -13.77936   -8.36314    6.45222
      H1   -13.88929   -8.33699    7.37793
       H   -15.42335  -11.33239    3.40309
       O   -15.69717  -11.85918    4.19040
      H1   -15.64950  -11.24819    4.91257
       H   -17.31723  -12.22379    8.88872
       O   -18.14762  -11.68008    9.07616
      H1   -18.04263  -11.37658    9.98587
       H   -19.09561   -9.49398    6.77162
       O   -19.61068   -8.68204    6.94140
      H1   -19.10072   -7.96473    6.59140
       H   -19.95455   -5.95228    9.07552
       O   -19.52715   -5.35098    8.47282
      H1   -19.39135   -4.46995    8.85814
       H   -15.58962  -10.29947    6.76974
       O   -14.78555  -10.75936    6.47956
      H1   -14.21054   -9.99827    6.27638
       H   -15.50297   -6.19024    5.68476
       O   -15.78765   -6.91229    5.14052
      H1   -15.26410   -7.02925    4.35335
       H   -13.75296   -4.64970    6.82801
       O   -14.71036   -4.92745    6.70382
      H1   -15.23312   -4.44137    7.32787
       H   -17.71096   -6.69107    5.16628
       O   -18.56163   -6.29725    5.42736
      H1   -19.18404   -6.57894    4.74906
       H   -17.23122   -3.23519    8.43364
       O   -16.29765   -3.51709    8.47680
      H1   -16.17093   -3.94741    9.30660
       H   -15.12840   -8.59344   12.65602
       O   -14.96672   -7.84509   12.04628
      H1   -14.23892   -8.08930   11.43627

