60
frame 0 | Written by MDAnalysis XYZWriter (release 2.4.3)
       H     5.38883    5.54738   17.74721
       O     5.33724    5.92747   16.84046
      H1     4.36939    5.92278   16.69652
       H    10.45100    1.58843   19.15203
       O    10.80372    2.34383   18.63848
      H1    11.13217    2.97453   19.30421
       H     4.85386   -2.20374   16.44661
       O     5.68658   -1.73338   16.49387
      H1     5.85647   -1.59228   15.57850
       H     4.85198   -0.42059   16.79205
       O     4.28607    0.30432   17.13923
      H1     3.91359   -0.04491   17.96698
       H    10.74784    2.40194   13.21649
       O     9.85167    2.24450   13.48236
      H1     9.53782    3.15168   13.70691
       H     5.15924    1.83507   17.77079
       O     5.71560    2.59932   17.84297
      H1     6.59595    2.20592   17.88173
       H     7.19854    0.03154   18.05954
       O     7.16769   -0.32125   18.94503
      H1     8.10430   -0.58435   19.11385
       H     9.35864   -1.73866   16.81013
       O     9.58679   -1.06005   16.17293
      H1     9.75456   -1.58680   15.35543
       H     1.28736    1.37199   18.06556
       O     0.74376    1.31698   17.26136
      H1     1.42422    1.34474   16.55815
       H     2.60040    6.79092   15.36499
       O     2.85546    6.07427   15.97395
      H1     2.83681    5.28047   15.43261
       H     6.01438    0.68447   13.33992
       O     5.73686    0.73588   14.25336
      H1     4.83678    1.04620   14.25638
       H     3.52006    4.23909   13.84842
       O     3.09594    3.64289   14.48865
      H1     2.16209    3.62492   14.17873
       H     6.85035    4.62481   14.42196
       O     5.93000    4.93037   14.44743
      H1     5.75379    5.04092   15.39519
       H     3.40606    0.65825   15.79381
       O     2.88536    0.81591   14.99758
      H1     3.12094    1.71123   14.74224
       H     8.04822    0.65815   13.27131
       O     7.62781    0.34531   12.49502
      H1     7.95532    0.95065   11.77315
       H     6.38339   -2.98370   17.65126
       O     6.61558   -3.91125   17.81410
      H1     5.97037   -4.36681   17.26934
       H     9.00544    5.24805   14.43219
       O     8.62527    4.37475   14.30807
      H1     8.68108    3.98174   15.16392
       H     8.21364    2.59251   16.66055
       O     8.39601    3.51182   16.87454
      H1     7.48114    3.88421   16.87213
       H     6.84331    0.57967   15.79533
       O     7.59941    0.83641   16.35619
      H1     8.20734    0.10475   16.17597
       H    11.16228    1.63779   15.67295
       O    11.95845    1.90532   16.15848
      H1    11.57345    2.35195   17.00162

