60
frame 0 | Written by MDAnalysis XYZWriter (release 2.4.3)
       H    13.89967   17.30597   -0.68572
       O    13.64736   16.36923   -0.53361
      H1    13.12282   16.40847    0.27978
       H    16.04260   13.55385    7.86866
       O    16.18046   12.61082    7.68055
      H1    17.12796   12.46566    7.79617
       H    17.39581   14.19436    5.01182
       O    16.86131   13.33792    5.00108
      H1    16.53868   13.18415    5.89953
       H    16.56797   11.56847    0.42084
       O    16.30245   12.47281    0.24839
      H1    15.82088   12.66474    1.06430
       H    13.84256   17.95151    1.88282
       O    13.46595   17.75969    2.73211
      H1    13.33187   18.62942    3.16544
       H    16.61453   17.00245    2.72211
       O    17.13943   17.62588    2.26197
      H1    17.97859   17.71930    2.72679
       H    13.18053   11.99593    5.54487
       O    12.90204   12.49612    4.76768
      H1    12.09650   12.03165    4.50255
       H    14.64170   16.43179    6.33300
       O    15.08970   16.98563    7.02013
      H1    15.50212   17.67902    6.47139
       H    10.31755   16.97076    3.89808
       O    10.65479   17.62640    3.28040
      H1    11.45448   17.24646    2.93385
       H    17.98886   18.21751    6.55720
       O    17.76101   17.34685    6.25954
      H1    17.15324   17.07469    6.96867
       H    18.31331   12.87161    3.88780
       O    19.05225   12.60070    3.33100
      H1    18.88239   13.11299    2.56015
       H    13.16689   17.14929    7.32215
       O    12.31252   16.70679    7.31421
      H1    11.74962   17.31025    6.76757
       H    12.81562   15.43156    6.31656
       O    13.45756   14.90684    5.80931
      H1    12.94385   14.15745    5.45142
       H    13.57764   10.50576    7.27749
       O    14.21341   10.93918    6.66401
      H1    14.61531   11.57318    7.24841
       H    15.14011   15.12440    4.22116
       O    15.37822   15.90589    3.70724
      H1    14.55184   16.37929    3.72649
       H    15.76141   12.44108    3.71429
       O    15.24950   11.85691    3.15664
      H1    14.36712   11.91251    3.55853
       H    15.78042   15.99399    8.40520
       O    15.87780   15.19288    8.94004
      H1    14.98912   15.04729    9.26941
       H    14.99239   15.05306    2.23551
       O    14.53292   14.68875    1.46196
      H1    14.74422   15.28895    0.73479
       H    12.49391   14.40199    1.11913
       O    11.58456   14.41300    0.82750
      H1    11.48246   13.73757    0.14794
       H    14.47409   10.12977    5.32327
       O    14.73290    9.63626    4.53474
      H1    15.11458   10.35772    3.99536

