60
frame 8 | Written by MDAnalysis XYZWriter (release 2.4.3)
       H   -15.16010   13.71503   15.18558
       O   -15.74681   14.49893   15.08779
      H1   -15.83403   14.99801   15.90837
       H    -9.90160   16.31060   12.72829
       O    -9.85052   15.34868   12.54293
      H1   -10.72988   15.05543   12.75739
       H   -12.88183   16.61006   10.06470
       O   -13.63636   17.21737    9.96286
      H1   -13.73218   17.59949   10.87364
       H   -17.07846   16.74067    8.96102
       O   -17.73701   17.41168    9.00188
      H1   -18.60068   17.02235    8.66979
       H   -12.14783   17.84573   16.56354
       O   -12.90119   17.29544   16.48539
      H1   -13.18086   17.22992   17.42013
       H   -16.61559   16.44005   17.44912
       O   -15.76706   16.06933   17.27489
      H1   -15.30410   16.89393   16.94408
       H   -13.84295   14.78380   12.96116
       O   -14.65215   15.21089   12.76996
      H1   -15.20538   14.96876   13.56458
       H   -14.33459   17.40104    6.69160
       O   -14.87350   17.04615    6.00204
      H1   -15.77817   17.28733    6.26453
       H   -14.18675   16.98382   12.69446
       O   -14.21499   17.93145   12.47317
      H1   -13.68071   18.32898   13.17440
       H   -10.37473   15.81225   15.12422
       O   -11.16285   15.31258   15.28001
      H1   -11.83966   15.98047   15.55187
       H   -12.12663   12.96595   13.03342
       O   -12.13535   13.84840   12.58879
      H1   -11.85503   13.64721   11.63407
       H   -11.92751   14.19819    9.04370
       O   -11.31145   14.37432    9.75079
      H1   -10.63836   13.65066    9.54529
       H   -15.70052   18.88139   13.40897
       O   -16.38189   19.56229   13.52038
      H1   -16.32506   20.30332   12.88609
       H   -12.96624   17.48989    8.35074
       O   -12.91962   17.91520    7.48830
      H1   -12.38152   17.29313    6.96084
       H    -9.53145   18.56885   12.82117
       O   -10.11817   18.20910   13.53733
      H1   -10.83911   18.77713   13.63616
       H   -15.49496   14.04150   11.72799
       O   -16.30456   13.49170   11.43460
      H1   -16.38860   13.71894   10.49788
       H   -17.81022   15.54972   14.27283
       O   -18.31745   16.31503   14.11230
      H1   -17.80787   16.78501   13.52417
       H   -15.26797   15.84313    8.40586
       O   -15.69413   15.62635    9.25723
      H1   -15.17019   16.06276    9.95069
       H   -17.58556   17.58930   10.72535
       O   -17.07875   17.42559   11.57071
      H1   -16.78793   18.31621   11.86934
       H   -14.48594   14.02850    8.88197
       O   -13.74404   13.57602    8.51039
      H1   -14.09740   13.22735    7.67173

