60
frame 0 | Written by MDAnalysis XYZWriter (release 2.4.3)
       H     1.12583   -9.58123   -8.66137
       O     1.61427   -9.78973   -9.48626
      H1     1.75377   -8.93458   -9.87986
       H     2.14128  -12.14731   -6.32489
       O     2.05983  -11.85820   -5.42054
      H1     2.32426  -12.62128   -4.87948
       H     3.31464  -10.35565  -10.04387
       O     4.09558  -10.84407  -10.41578
      H1     4.37850  -11.33941   -9.65832
       H    -1.99780   -8.54555   -8.41021
       O    -2.36700   -8.08429   -9.16856
      H1    -1.70258   -8.24718   -9.84419
       H     0.89457  -12.07004  -12.67122
       O     0.04684  -12.42859  -12.94836
      H1    -0.38576  -12.66094  -12.10660
       H     2.87406  -12.99162  -12.16174
       O     2.92022  -12.03825  -12.32286
      H1     3.45036  -11.72483  -11.58978
       H     1.55566  -16.64681   -6.40083
       O     1.49838  -16.98317   -7.29024
      H1     1.66121  -16.16949   -7.80943
       H     0.23112  -12.19321   -4.38214
       O    -0.61401  -12.61488   -4.21109
      H1    -0.36202  -13.54167   -4.21295
       H    -0.51739  -12.58831   -8.36972
       O     0.20627  -12.76127   -8.92938
      H1     0.77750  -11.98888   -8.77824
       H    -1.37085  -10.83755   -5.02598
       O    -1.41768   -9.88133   -5.11540
      H1    -1.22281   -9.58615   -4.20858
       H    -0.40277  -14.93891   -6.15682
       O    -0.92655  -14.67793   -6.93955
      H1    -1.82476  -14.49454   -6.57703
       H    -2.24474  -10.92858   -8.23730
       O    -1.84692  -11.60763   -7.68252
      H1    -2.63379  -12.03753   -7.32842
       H     2.40498  -15.33631  -12.06207
       O     3.01217  -14.91979  -11.43437
      H1     3.82955  -15.36702  -11.65779
       H    -1.15572  -13.09224  -10.13344
       O    -1.63392  -13.08174  -10.97428
      H1    -2.46861  -13.51734  -10.76851
       H     1.26245  -14.27943   -8.79171
       O     2.05648  -14.85374   -8.76101
      H1     2.25842  -14.88737   -9.74072
       H     4.70453  -13.24353   -8.30458
       O     4.68887  -14.21842   -8.24596
      H1     3.76689  -14.44607   -8.41767
       H    -0.96471   -8.13321   -7.37967
       O    -0.62445   -9.02191   -7.47141
      H1    -0.77736   -9.45953   -6.59435
       H     1.72719   -8.75810   -5.77229
       O     2.59026   -9.25648   -5.84436
      H1     2.45224  -10.14585   -5.56325
       H    -3.59303  -11.15355  -12.54476
       O    -3.06040  -10.92626  -11.77213
      H1    -2.54247  -11.70368  -11.52100
       H    -1.73428  -15.46210   -8.37047
       O    -1.98883  -15.77423   -9.23171
      H1    -1.44613  -16.55023   -9.28319

