60
frame 0 | Written by MDAnalysis XYZWriter (release 2.4.3)
       H    11.45068   17.39761   18.27262
       O    10.48924   17.51416   18.14725
      H1    10.41363   17.67028   17.20559
       H     9.46997   19.02076   15.23989
       O     9.67132   18.15882   15.61116
      H1     8.78462   17.89244   15.92795
       H     2.96921   13.35455   14.77038
       O     3.10528   12.41902   14.61956
      H1     2.79780   12.10189   15.48159
       H     1.62967   15.17756   14.72960
       O     2.13229   14.98410   15.53402
      H1     1.41883   14.94236   16.18916
       H     3.95710   15.89543   17.93685
       O     4.38742   16.29866   17.14216
      H1     3.76368   16.18925   16.40996
       H    10.15026   10.22004   17.91063
       O    10.35521    9.95749   18.79794
      H1     9.75021    9.24315   18.97622
       H     9.31162   11.57806   15.80089
       O    10.14172   11.18852   16.14955
      H1    10.41298   10.58229   15.45806
       H     1.55877   15.13078   18.71902
       O     0.86438   14.95679   18.06054
      H1     0.98565   14.04955   17.85386
       H    10.13645   15.88817   18.44741
       O    10.07824   14.94172   18.64285
      H1     9.13112   14.75782   18.60304
       H     5.96290   19.01445   19.06671
       O     6.61658   18.36447   18.78118
      H1     6.41498   18.17664   17.86072
       H    13.51212   15.91727   18.15724
       O    13.92462   15.24828   18.74502
      H1    13.21977   14.59737   18.90722
       H     6.84820   13.71533   15.93616
       O     7.65050   14.14022   16.15142
      H1     7.39767   15.04862   16.07735
       H     6.19520   12.15142   13.35827
       O     5.83934   12.76689   14.02197
      H1     4.92871   12.46286   14.19314
       H     2.34437   11.54300   17.69953
       O     2.58285   11.14634   16.83090
      H1     3.55441   11.13441   16.89541
       H     6.02745    9.80949   15.87746
       O     5.11121    9.92371   16.02210
      H1     4.90379    9.13141   16.51381
       H     5.08926    7.44044   17.64908
       O     4.46342    8.14434   17.82375
      H1     4.96066    8.57762   18.51589
       H     7.31077   13.76291   18.11127
       O     7.48060   13.67120   19.05627
      H1     7.04230   14.43613   19.43443
       H    12.12368   13.00829   17.90665
       O    12.19349   12.80130   16.97155
      H1    11.43793   12.17637   16.87548
       H     6.22486   16.86362   16.54120
       O     7.11898   16.84838   16.17319
      H1     7.02708   16.82350   15.18008
       H     9.91892   13.10332   14.23930
       O     8.93879   13.02555   14.14054
      H1     8.54538   13.58315   14.87214

