60
frame 0 | Written by MDAnalysis XYZWriter (release 2.4.3)
       H     3.38950   11.99039   18.79610
       O     2.89033   12.26731   19.52429
      H1     3.07528   13.22059   19.66684
       H     0.89763   15.44152   17.33916
       O     1.72232   15.49558   17.86625
      H1     1.31107   15.32161   18.76215
       H     2.79336   17.59827   15.39325
       O     3.61688   18.11520   15.35022
      H1     3.58891   18.42582   14.43259
       H    -0.65550   19.27648   19.41138
       O    -0.64206   18.68687   18.66198
      H1     0.16061   18.25782   18.81584
       H    -1.03596   15.14646   15.95428
       O    -0.09958   15.20004   15.77383
      H1    -0.15717   14.65532   14.94102
       H     3.21475   19.63656   12.95309
       O     4.07603   19.28378   13.02993
      H1     4.10213   18.59285   12.40903
       H     0.52198   16.88614   14.90012
       O     1.13730   17.31123   14.24001
      H1     0.66539   17.35040   13.42311
       H    -2.21256   13.82632   18.42768
       O    -1.49739   14.00843   17.82187
      H1    -0.83791   13.23798   17.86545
       H     6.22114   15.40557   15.06459
       O     7.17073   15.30930   15.10027
      H1     7.40753   16.19887   14.82518
       H    -3.26931   15.36073   15.88331
       O    -3.71866   15.76478   15.15253
      H1    -3.59307   16.70676   15.44495
       H     1.99217   17.18072   18.30104
       O     2.05915   18.03091   18.82940
      H1     2.86229   18.35402   18.40280
       H     6.62096   18.57862   15.28514
       O     6.88415   17.98774   14.52494
      H1     6.09910   17.85618   14.04820
       H     4.10576   14.47241   17.57014
       O     4.81332   13.96020   17.95069
      H1     5.57818   14.38644   17.52333
       H     5.71821   19.06261   18.82490
       O     6.60166   19.13656   19.34316
      H1     6.81860   18.30296   19.71202
       H     2.38342   12.63570   16.14753
       O     3.11401   12.38306   15.61604
      H1     3.70413   13.16805   15.61996
       H     1.32833   12.95335   18.23295
       O     0.82577   12.74014   17.40199
      H1     0.66128   13.63473   16.97927
       H     3.73244   15.09566   14.54885
       O     4.21900   15.46513   15.29845
      H1     4.07502   16.43575   15.12863
       H    -1.94365   17.28020   18.55912
       O    -2.43779   16.60580   18.06312
      H1    -2.01195   15.74214   18.11495
       H    -2.46838   17.89523   16.78479
       O    -2.69557   18.58102   16.11327
      H1    -1.91261   19.19953   16.20580
       H     7.54963   14.72196   16.75928
       O     7.35670   14.48137   17.69513
      H1     7.53433   13.55058   17.60793

