60
frame 9 | Written by MDAnalysis XYZWriter (release 2.4.3)
       H    14.94949  -13.65585    3.54799
       O    14.30001  -13.20787    2.96209
      H1    13.52222  -13.82373    2.83814
       H    17.16201  -15.63167    0.01309
       O    17.00949  -14.74015   -0.32543
      H1    16.39904  -14.88907   -1.09813
       H    18.17352  -12.43176    3.59293
       O    17.90796  -11.94439    4.43187
      H1    17.49079  -11.11930    4.13344
       H    18.82152  -12.23923    8.30186
       O    18.15151  -12.88869    8.44695
      H1    18.54042  -13.79792    8.26103
       H    15.36802  -14.12126    5.18460
       O    16.16942  -14.09175    4.58186
      H1    16.62923  -13.27409    4.89103
       H    15.57719  -13.63287    8.88743
       O    14.96826  -13.03515    8.46648
      H1    14.18603  -13.06283    9.01060
       H    19.11512  -14.38125   10.60316
       O    19.79584  -14.51951   11.24735
      H1    19.43043  -14.15211   12.05191
       H    14.18223  -13.69382    7.01541
       O    14.08625  -14.38153    6.36877
      H1    14.82510  -14.96800    6.58001
       H    12.75987  -15.92068    8.65093
       O    12.07974  -15.47380    8.08884
      H1    12.60607  -15.13117    7.31783
       H    11.54889  -19.46903    8.00208
       O    12.44576  -19.15336    7.93898
      H1    13.01486  -19.82423    8.27388
       H    17.35352  -17.36923    4.71690
       O    17.10080  -16.69078    4.12730
      H1    16.94438  -15.90768    4.59934
       H    18.47883  -18.77535    9.65493
       O    19.12153  -18.08916    9.58006
      H1    19.26882  -17.84803   10.51719
       H    13.59266  -17.20923   10.38962
       O    13.95354  -17.97035    9.80885
      H1    13.40981  -18.03003    9.00226
       H    18.95021  -18.89276    5.82761
       O    18.10466  -18.82463    5.30367
      H1    18.33163  -19.40620    4.52190
       H    13.97007  -18.27414    4.92752
       O    14.35016  -18.52514    5.82292
      H1    13.57456  -18.52962    6.36949
       H    17.85384  -17.87922    0.99464
       O    17.03737  -17.53679    0.57879
      H1    16.40116  -17.48190    1.32998
       H    18.88659  -16.31415    8.76868
       O    18.35274  -15.55544    8.36990
      H1    17.49447  -15.58499    8.81879
       H    16.56650  -16.54500    6.79353
       O    15.60681  -16.52351    7.06562
      H1    15.22808  -17.14786    6.45267
       H    14.24955  -17.37054    2.38429
       O    15.01100  -17.84566    2.73187
      H1    15.79841  -17.28697    3.04264
       H    15.71252  -15.91521   10.46396
       O    15.79474  -15.63212    9.58269
      H1    15.42066  -16.29237    9.00567

