60
frame 0 | Written by MDAnalysis XYZWriter (release 2.4.3)
       H   -13.96865   -6.41864   10.19317
       O   -14.22530   -5.56264    9.82825
      H1   -14.45929   -5.78920    8.90716
       H   -13.80560   -7.84220   12.23083
       O   -14.19751   -8.01237   11.37284
      H1   -13.38864   -8.25438   10.89988
       H   -19.59169   -8.91024   10.61212
       O   -19.13240   -9.74849   10.79452
      H1   -18.27279   -9.54204   10.39452
       H   -15.86835  -11.89557   10.04705
       O   -16.46479  -12.18373    9.32592
      H1   -17.22313  -12.62009    9.73643
       H   -14.90586  -11.52932    6.54808
       O   -15.41440  -12.08220    5.94177
      H1   -15.19039  -12.96386    6.31520
       H   -18.76347   -7.29468   11.69536
       O   -18.96288   -7.50859   12.60638
      H1   -19.04985   -8.47126   12.62346
       H   -11.93749   -7.51371    7.92563
       O   -11.32253   -7.07228    7.32861
      H1   -11.72687   -7.15954    6.45648
       H   -16.79797   -7.19795    4.28315
       O   -17.47289   -6.60792    3.92140
      H1   -18.16216   -6.73375    4.59638
       H   -13.93410   -9.49675    7.41201
       O   -13.59521  -10.41540    7.26121
      H1   -12.86236  -10.22556    6.66204
       H   -12.81558   -6.15275    4.22138
       O   -12.89838   -6.92464    4.78739
      H1   -12.13857   -7.47982    4.57224
       H   -15.83555   -8.30777    8.21725
       O   -15.25581   -8.14466    7.46051
      H1   -15.75573   -8.46919    6.71832
       H   -14.43019   -7.67939    4.60431
       O   -15.24254   -8.18002    4.49204
      H1   -14.88513   -9.05632    4.23350
       H   -16.20134   -9.98612    9.24000
       O   -16.38496   -9.14360    9.70745
      H1   -15.65294   -9.08969   10.33169
       H   -11.34867   -9.03051   10.14288
       O   -11.90201   -8.29892    9.81294
      H1   -11.38829   -7.50432    9.98750
       H   -15.70430   -5.79115   10.99440
       O   -16.36222   -5.96354   11.70974
      H1   -16.02444   -6.70335   12.27408
       H   -14.44626  -12.59906   11.48876
       O   -14.69775  -11.69483   11.26685
      H1   -14.01293  -11.47161   10.62652
       H   -18.28467  -10.15059    6.02394
       O   -18.13989   -9.26230    5.65098
      H1   -18.93031   -9.11273    5.13744
       H   -12.60863  -11.16682    8.56114
       O   -12.44542  -11.71642    9.34591
      H1   -11.69762  -11.31198    9.80879
       H   -17.73351   -5.95041   10.10886
       O   -18.06271   -6.08814    9.19557
      H1   -18.55653   -5.24187    9.06576
       H   -15.50871   -6.37355    7.25712
       O   -15.46804   -5.41821    7.42198
      H1   -16.34446   -5.22317    7.76091

