60
frame 0 | Written by MDAnalysis XYZWriter (release 2.4.3)
       H    -4.64592    6.40275   -8.23908
       O    -4.46209    6.52960   -9.17632
      H1    -5.30534    6.51967   -9.59357
       H    -7.28984    8.65087   -9.26344
       O    -6.43466    8.59360   -8.78958
      H1    -6.53354    7.77657   -8.27262
       H    -3.90026    2.26538   -7.24208
       O    -4.68013    1.80664   -6.90578
      H1    -5.44471    2.25586   -7.34202
       H    -2.65348    5.53264   -6.13381
       O    -3.41394    6.08780   -6.38467
      H1    -2.96371    6.86047   -6.71986
       H   -10.10852    4.99090   -7.90351
       O   -10.06025    4.11303   -7.47949
      H1   -10.50240    3.57801   -8.14337
       H    -5.94135    7.53760   -4.03210
       O    -6.78548    7.93655   -3.72253
      H1    -7.07841    8.55284   -4.41544
       H   -11.14243    6.31058   -3.78521
       O   -10.77283    5.48863   -4.12679
      H1    -9.84900    5.70266   -4.27465
       H    -9.07941    5.39071   -9.95520
       O    -8.07881    5.35734   -9.89616
      H1    -7.91087    5.64988   -8.98570
       H    -6.64160    5.18716   -7.47893
       O    -6.65705    6.15577   -7.34814
      H1    -7.35005    6.27321   -6.66819
       H    -6.25229    3.38208   -8.90958
       O    -5.56733    3.05341   -9.49058
      H1    -5.97238    2.98103  -10.34073
       H    -7.58050    6.67642   -4.42071
       O    -8.07823    5.99033   -4.88792
      H1    -7.44247    5.23247   -4.91259
       H    -9.63927    9.34015  -10.00897
       O    -8.84633    8.81075   -9.96204
      H1    -8.95093    8.07938  -10.57487
       H    -4.05915    6.51614   -4.68370
       O    -4.20246    7.12651   -3.93981
      H1    -3.75117    6.68687   -3.19352
       H   -10.48900   10.72510   -6.08218
       O   -10.17208   10.06260   -6.68647
      H1    -9.22463   10.17350   -6.82028
       H    -6.51671    3.45643   -5.74347
       O    -6.20600    3.80370   -4.88721
      H1    -5.30633    3.43911   -4.91013
       H    -5.29201   10.09137   -5.91178
       O    -5.43907    9.14633   -6.12669
      H1    -6.09554    9.20625   -6.82153
       H    -7.14715   11.24669   -7.53734
       O    -7.62975   10.70918   -6.89951
      H1    -7.16176   10.90879   -6.08232
       H    -6.37858    4.28851   -3.14629
       O    -6.73240    4.56734   -2.28203
      H1    -6.02783    4.96473   -1.73112
       H    -7.72498    2.37789   -6.77024
       O    -7.53661    3.21923   -7.21751
      H1    -8.42315    3.56673   -7.31076
       H   -10.51312    8.38540   -8.02663
       O   -10.70172    7.48893   -8.35635
      H1   -11.63296    7.44434   -8.51540

