60
frame 0 | Written by MDAnalysis XYZWriter (release 2.4.3)
       H    -1.97259   -9.15011  -14.87294
       O    -2.41716   -8.26797  -14.94609
      H1    -1.65548   -7.69353  -14.83381
       H    -7.37583   -7.47546  -15.50469
       O    -6.82440   -7.85583  -16.20754
      H1    -6.50521   -8.70501  -15.90960
       H     0.28946  -14.14489  -18.38807
       O    -0.37210  -13.43751  -18.38498
      H1     0.08496  -12.73683  -18.89768
       H    -2.01299  -16.20927  -17.73921
       O    -2.46632  -16.78117  -17.08986
      H1    -2.78230  -17.50081  -17.64366
       H    -6.08357  -17.88909  -17.86367
       O    -5.15456  -17.69462  -17.57374
      H1    -5.31371  -16.89694  -17.02591
       H    -0.92398  -11.36468  -13.80255
       O    -1.59341  -10.91249  -14.37783
      H1    -1.66836  -11.49153  -15.16414
       H    -1.93545  -15.17049  -13.92209
       O    -2.28975  -14.81989  -14.77190
      H1    -2.50191  -15.64086  -15.22464
       H    -7.14241   -9.62190  -19.47547
       O    -7.14847   -8.72080  -19.06450
      H1    -6.73240   -8.85855  -18.20804
       H    -1.46823  -12.72909  -16.99522
       O    -2.14540  -12.60081  -16.30122
      H1    -2.24348  -13.44262  -15.82394
       H    -6.39583  -11.31584  -16.02925
       O    -6.29429  -10.40765  -15.65741
      H1    -6.80573  -10.44515  -14.86798
       H    -3.23720  -11.46638  -14.14064
       O    -4.14897  -11.78941  -14.16491
      H1    -4.58060  -11.23949  -14.86378
       H    -2.81239   -7.46616  -16.53892
       O    -3.18215   -6.87779  -17.19457
      H1    -3.45937   -7.46878  -17.90512
       H    -5.28421  -15.52459  -14.77228
       O    -5.43151  -15.44637  -15.73799
      H1    -5.08062  -14.56347  -15.98248
       H    -4.63589  -14.74715  -12.04027
       O    -4.53233  -13.80665  -11.83841
      H1    -4.36344  -13.33432  -12.70438
       H     1.00126  -13.30874  -14.45915
       O     1.46624  -13.34423  -15.27183
      H1     0.80979  -13.56593  -15.93215
       H    -3.78610  -13.11008  -18.91367
       O    -3.79577  -12.19640  -18.58361
      H1    -3.47243  -12.28427  -17.66727
       H    -6.77446  -13.14013  -16.89996
       O    -5.85316  -12.90105  -16.75409
      H1    -5.54033  -12.71200  -17.66910
       H    -3.59303  -11.15355  -12.54476
       O    -3.06040  -10.92626  -11.77213
      H1    -2.54247  -11.70368  -11.52100
       H     0.28404   -9.10817  -19.38173
       O    -0.16726   -9.03870  -18.52884
      H1    -1.00049   -9.50946  -18.69534
       H     1.50411  -10.87323  -16.26413
       O     1.41383  -10.83768  -17.21802
      H1     0.83111  -10.07706  -17.26639

