60
frame 0 | Written by MDAnalysis XYZWriter (release 2.4.3)
       H     0.97946    2.46959   -0.42921
       O     1.77431    2.88059   -0.07961
      H1     1.64271    3.79274   -0.34001
       H     0.63133    4.69671   -3.71351
       O     0.23944    5.57388   -3.90042
      H1     0.99800    6.14948   -4.03317
       H    -1.32440    1.07012    3.24573
       O    -1.46197    1.62107    4.03286
      H1    -1.98647    1.03945    4.60917
       H    -3.26250    3.16155   -3.09488
       O    -3.72330    2.50716   -3.66359
      H1    -3.92683    1.78875   -3.04461
       H    -1.98069    2.18820   -6.06425
       O    -1.82143    1.47653   -5.40758
      H1    -2.41389    1.70134   -4.67438
       H     0.08786    5.43199    0.56200
       O    -0.68552    5.40441   -0.03447
      H1    -0.63788    4.56542   -0.45775
       H    -4.38302    6.14736    0.02013
       O    -4.83078    5.52692   -0.56982
      H1    -5.07197    4.82711    0.03021
       H    -3.54772    3.00403    0.46008
       O    -3.90206    2.77875   -0.39831
      H1    -3.73835    1.84650   -0.49356
       H    -5.33533    1.64317    2.60103
       O    -5.69905    1.12982    1.88558
      H1    -5.87083    1.78889    1.21399
       H    -0.89416    1.98028   -1.44851
       O    -1.26053    2.86909   -1.31541
      H1    -2.05472    2.71518   -0.83167
       H     0.82564    2.03488   -4.31932
       O     0.29088    2.63097   -3.79262
      H1    -0.56527    2.47340   -4.18069
       H    -1.70575   -2.07075   -2.15195
       O    -1.61582   -1.15682   -2.43675
      H1    -1.12672   -0.75469   -1.73571
       H    -2.20387    2.72805    2.81861
       O    -2.86461    3.21617    2.28377
      H1    -3.01863    3.97837    2.88769
       H    -0.85334   -0.54807    1.88527
       O    -1.20110    0.30736    1.68410
      H1    -2.02037    0.16540    1.19381
       H    -3.35147   -0.26075   -2.57625
       O    -4.19347    0.17057   -2.40556
      H1    -4.81448   -0.42536   -2.82060
       H    -2.87895    7.74728   -1.57763
       O    -1.98375    7.67614   -1.89188
      H1    -1.90144    6.76698   -2.20211
       H    -2.54115    7.71244    0.97429
       O    -2.91698    6.85734    0.78922
      H1    -2.15520    6.37940    0.46029
       H    -3.84422   -0.41921   -0.47468
       O    -3.64001   -0.08767    0.43068
      H1    -4.49127    0.02565    0.89433
       H    -3.63830    4.72233   -1.69699
       O    -2.97909    4.91448   -2.41477
      H1    -2.18837    4.45325   -2.10982
       H    -0.01958    0.30403    0.25240
       O     0.13252    0.39016   -0.69736
      H1     1.11463    0.37567   -0.67519

