60
frame 0 | Written by MDAnalysis XYZWriter (release 2.4.3)
       H    18.72466    9.80762   -0.54069
       O    18.99047    9.17555   -1.21971
      H1    18.55201    9.51908   -2.01248
       H    16.56797   11.56847    0.42084
       O    16.30245   12.47281    0.24839
      H1    15.82088   12.66474    1.06430
       H    18.74031    5.80086    6.76567
       O    18.30125    6.64148    6.98664
      H1    17.43914    6.57148    6.56110
       H    17.65254    6.79369    0.51964
       O    17.69502    6.76458   -0.43849
      H1    17.92809    7.64859   -0.65008
       H    13.23216    7.41366   -0.20901
       O    12.96375    7.28147    0.70891
      H1    13.00879    8.22471    1.01937
       H    19.10116    2.61019    1.46209
       O    18.72622    3.28531    0.91747
      H1    18.12704    3.72452    1.53744
       H    18.54778    9.63676    1.67321
       O    18.77945   10.54773    1.46279
      H1    18.60228   10.97447    2.30789
       H    17.37674    7.43414    2.47534
       O    18.17476    7.91667    2.21284
      H1    18.82482    7.23680    1.99714
       H    15.60861    9.02238   -2.10863
       O    15.77051    8.13817   -2.47243
      H1    16.12024    7.62216   -1.72354
       H    14.61080    4.12380    0.84497
       O    15.17248    4.43756    1.56359
      H1    14.95115    5.39397    1.60491
       H    18.31331   12.87161    3.88780
       O    19.05225   12.60070    3.33100
      H1    18.88239   13.11299    2.56015
       H    16.57641    4.19685    3.30719
       O    17.39604    3.67890    3.29215
      H1    17.50588    3.33337    4.21171
       H    18.28008    5.07805   -2.24743
       O    19.17021    5.34750   -2.15430
      H1    19.09825    5.97769   -1.40352
       H    15.19677    5.02271    5.62457
       O    15.26397    5.89936    5.20130
      H1    15.24185    6.53114    5.93176
       H    13.14518    8.97980    3.59373
       O    12.30657    8.80432    3.09819
      H1    11.74764    9.58071    3.32197
       H    15.15360    8.04113    2.22078
       O    15.46694    7.21087    2.66962
      H1    15.30094    7.37924    3.59845
       H    15.66437    7.85004    7.98435
       O    15.83990    8.18168    7.09626
      H1    15.52973    9.09650    7.16576
       H    15.76141   12.44108    3.71429
       O    15.24950   11.85691    3.15664
      H1    14.36712   11.91251    3.55853
       H    14.23106    9.93671    0.88065
       O    15.01744    9.51097    1.25628
      H1    15.29535   10.20772    1.83107
       H    14.47409   10.12977    5.32327
       O    14.73290    9.63626    4.53474
      H1    15.11458   10.35772    3.99536

