60
frame 0 | Written by MDAnalysis XYZWriter (release 2.4.3)
       H     3.11582   16.74252   -4.27111
       O     2.99711   16.64908   -3.31008
      H1     3.84571   16.40954   -2.95094
       H     5.64066   13.14339    0.03658
       O     4.98250   13.61765   -0.51341
      H1     4.33600   12.94397   -0.80845
       H     1.98830   13.36048   -1.44796
       O     2.50596   12.54257   -1.37405
      H1     2.74930   12.35071   -2.26469
       H     1.81641   18.42913   -2.57309
       O     1.05139   18.29633   -2.03375
      H1     1.19799   17.39035   -1.74045
       H     5.37496   15.03402   -1.62485
       O     5.45504   15.79123   -2.21895
      H1     5.45806   16.54271   -1.59188
       H     7.40684   15.52335    1.93340
       O     6.49957   15.63194    2.26280
      H1     6.61891   16.38734    2.81685
       H     2.97463   14.03718    0.80680
       O     2.23421   14.46200    1.25616
      H1     2.03732   13.78539    1.88102
       H     6.05309   16.58659    0.57292
       O     5.76330   17.37749    0.05781
      H1     6.55663   17.86374   -0.13689
       H    -1.65681   18.00774   -2.86569
       O    -2.09449   18.12038   -2.00812
      H1    -1.66580   17.54533   -1.39018
       H     0.32318   14.34507   -2.15748
       O     1.01186   14.82336   -1.72223
      H1     1.48540   15.17493   -2.47693
       H    -1.49003   13.87827    1.02800
       O    -0.69597   13.33522    1.04787
      H1    -0.01083   14.03139    1.12650
       H    -0.71739   19.34122    4.05077
       O    -0.73833   18.43320    4.39687
      H1    -1.57190   18.06815    4.07416
       H    -0.46385   16.33491    0.15050
       O    -1.44688   16.33689    0.05626
      H1    -1.76130   16.44458    0.93444
       H     5.46346   19.24006    3.87286
       O     4.62327   19.11613    3.34717
      H1     4.12993   18.47237    3.84160
       H    -1.26245   14.83501    4.63752
       O    -0.43987   15.08048    5.06576
      H1     0.05234   15.37800    4.27505
       H     1.96496   17.48633    0.48620
       O     1.25568   16.85730    0.52287
      H1     1.72132   15.98079    0.62375
       H     0.10910   18.47873   -3.59092
       O    -0.57978   18.31334   -4.26033
      H1    -0.73679   19.22496   -4.58282
       H     0.75058   16.63013    2.27370
       O     0.94144   16.59792    3.21465
      H1     0.33251   17.20853    3.64036
       H     3.86637   18.15514    0.06580
       O     3.18031   18.74557   -0.29563
      H1     3.43378   18.83870   -1.21206
       H     2.76578   18.01070    5.23660
       O     3.06519   17.43128    4.51612
      H1     2.31792   17.35376    3.92889

