60
frame 0 | Written by MDAnalysis XYZWriter (release 2.4.3)
       H    14.05965   18.73453  -14.94250
       O    13.25237   18.35526  -15.31386
      H1    13.56079   17.55834  -15.78257
       H     8.27101   13.75903  -15.14420
       O     9.00593   14.13006  -14.62056
      H1     9.09592   13.39561  -14.02434
       H     7.96564   17.85119  -10.08045
       O     7.50949   17.11898  -10.48601
      H1     8.03949   16.88904  -11.25970
       H     7.24247   19.16136  -13.47683
       O     6.86073   18.79983  -14.29542
      H1     5.92089   18.67577  -14.12750
       H    15.46663   13.28042  -13.90779
       O    15.15545   13.37581  -12.99758
      H1    15.13253   14.33347  -12.82816
       H    10.57220   14.70757   -9.87557
       O     9.68304   14.75428  -10.28795
      H1     9.16692   14.44588   -9.56746
       H    11.32752   17.23139  -15.75261
       O    10.80860   16.86980  -16.48627
      H1     9.88901   16.96954  -16.18687
       H    12.06729   17.55589  -17.60177
       O    12.71670   17.96219  -18.21011
      H1    12.64690   18.93901  -18.07786
       H    12.94371   18.18011  -11.56880
       O    13.85727   18.36042  -11.31531
      H1    13.89170   18.26897  -10.34612
       H    10.17373   13.32960  -11.47971
       O     9.76491   12.80262  -12.14215
      H1    10.28480   12.01099  -12.16209
       H     6.20705   13.44151  -11.84906
       O     6.82187   14.17133  -11.74723
      H1     7.67370   13.75893  -11.71124
       H    13.30116   15.31597  -15.84721
       O    13.95351   15.88440  -16.34506
      H1    13.61244   15.87415  -17.26078
       H     9.07124   15.68600  -13.34832
       O     9.31477   16.26249  -12.57222
      H1     9.61874   15.59813  -11.96736
       H    11.25361   14.77967  -15.19919
       O    12.05313   14.53092  -14.72960
      H1    12.07646   13.56396  -14.66415
       H    14.12061   15.41740   -9.48866
       O    15.03529   15.68893   -9.32279
      H1    15.32484   15.93705  -10.21807
       H    12.47560   15.83765  -13.06517
       O    12.19473   16.63692  -12.64100
      H1    11.24328   16.74162  -12.84863
       H    12.77375   13.82556  -10.40979
       O    12.46538   14.68305  -10.11630
      H1    12.47236   15.11530  -10.95662
       H     7.51176   17.55672  -15.14229
       O     8.01102   16.93321  -15.70376
      H1     8.22144   16.17481  -15.15059
       H    11.31727   18.15781   -9.34273
       O    10.81597   17.60853   -9.93578
      H1    10.69964   16.82061   -9.42290
       H    14.38527   16.95790  -12.19464
       O    14.92706   16.14268  -12.33104
      H1    15.82052   16.47566  -12.36612

