60
frame 8 | Written by MDAnalysis XYZWriter (release 2.4.3)
       H     1.33279   -6.81350   14.42764
       O     2.02314   -6.51527   15.03767
      H1     2.83318   -6.82366   14.71449
       H    -2.06234  -12.26838   18.11821
       O    -2.60772  -11.66621   17.62647
      H1    -2.25483  -11.75006   16.72044
       H    -0.91905   -7.45816   13.02867
       O    -0.28455   -6.77984   13.46945
      H1     0.10964   -6.31435   12.78105
       H    -0.24964  -14.05614   19.26082
       O    -0.27398  -13.09955   19.21195
      H1     0.47503  -12.88948   18.59364
       H     4.27609   -4.97758   15.53205
       O     4.74796   -4.13609   15.46615
      H1     5.64061   -4.35687   15.02479
       H    -1.40977  -12.29485   14.54137
       O    -1.68957  -11.57892   15.11369
      H1    -0.99668  -10.90071   15.06574
       H    -1.06782   -7.52736   16.47799
       O    -1.55103   -8.33537   16.26028
      H1    -2.45370   -8.24393   15.95657
       H     0.60426  -10.85497   16.25198
       O     0.49441  -10.09141   15.64665
      H1    -0.32135   -9.56138   15.81270
       H     6.80267  -11.05168   19.30945
       O     6.38633  -10.82026   18.47076
      H1     6.82284  -10.03765   18.08306
       H     4.70002  -10.39138   14.52862
       O     5.04688   -9.90446   13.74689
      H1     4.39105   -9.91387   13.02289
       H     3.55079  -10.36076   16.64882
       O     4.10773  -10.99070   16.15346
      H1     4.38813  -11.57958   16.83710
       H     4.38458   -6.72465   12.78557
       O     4.35391   -7.07550   13.67747
      H1     4.66691   -7.99506   13.63958
       H     4.43533   -7.16667   18.52893
       O     4.17922   -6.72597   17.71449
      H1     5.07173   -6.38725   17.48943
       H     3.82676   -9.75010   11.26308
       O     3.20916  -10.19592   11.83261
      H1     3.42023  -11.11289   11.81771
       H     2.04776   -2.98384   14.90408
       O     1.46022   -3.75596   14.69041
      H1     2.00774   -4.53847   14.80961
       H     3.39458  -12.86552   15.03499
       O     2.62677  -13.09882   14.46821
      H1     2.98899  -13.06114   13.52740
       H    -0.52040   -5.28807   16.04169
       O     0.03905   -5.88830   16.58286
      H1     0.80486   -6.12723   16.04926
       H     2.45201   -5.85699   18.37881
       O     1.87389   -5.11333   18.58969
      H1     1.12160   -5.43977   18.09360
       H     1.88114   -9.08214   16.65715
       O     2.65724   -9.06285   17.22496
      H1     2.96777   -8.14073   17.22439
       H     1.16642  -13.23190   16.81135
       O     1.27891  -12.34033   17.16393
      H1     2.23879  -12.12753   17.00963

