60
frame 8 | Written by MDAnalysis XYZWriter (release 2.4.3)
       H     6.62543   16.28568  -12.30811
       O     6.25569   16.65152  -13.12721
      H1     6.74523   17.48783  -13.26613
       H     8.79145   18.79202  -13.77633
       O     8.47873   18.34513  -12.99787
      H1     9.08841   18.67660  -12.28800
       H    13.65587   17.23886  -10.85457
       O    13.39577   16.76432  -10.05438
      H1    13.16029   15.83481  -10.32791
       H     9.20689   16.88568  -13.71290
       O     9.91488   16.31306  -14.15313
      H1     9.78930   15.35033  -13.92223
       H    11.47671   17.57921   -7.52816
       O    11.65613   18.00087   -8.34236
      H1    12.34676   17.43819   -8.79290
       H     9.50172   16.54408   -8.72433
       O     9.20512   17.11226   -9.45530
      H1    10.03935   17.54510   -9.65286
       H     8.29120   16.02265  -10.87028
       O     7.69790   15.43194  -11.30155
      H1     8.24615   15.07798  -12.03229
       H     5.11847   16.12617   -8.08361
       O     5.22092   15.19705   -8.12648
      H1     6.12287   14.99060   -7.82819
       H     6.66466   19.18481  -12.13228
       O     5.90181   19.72725  -11.93704
      H1     5.27691   19.47508  -12.62650
       H     6.35752   18.03474   -7.76873
       O     7.31732   18.09165   -7.55799
      H1     7.82274   17.89170   -8.37321
       H    11.41211   15.31308   -9.04932
       O    10.93461   15.07810   -8.26718
      H1    11.66870   15.11037   -7.66422
       H     6.78273   14.24830  -10.63780
       O     6.19354   13.60198  -10.10313
      H1     5.91724   14.17316   -9.37637
       H    13.02685   17.04784  -13.75577
       O    12.43752   16.85810  -12.98284
      H1    11.58203   16.60762  -13.47034
       H    14.74572   17.68058   -9.48724
       O    15.71915   17.93320   -9.45163
      H1    16.03624   18.05451  -10.35497
       H    11.95616   19.69486  -13.49661
       O    12.36771   19.57303  -12.64215
      H1    12.36962   18.59373  -12.57902
       H    13.10069   18.94879   -5.99149
       O    13.49707   18.18390   -5.61678
      H1    13.49343   17.57376   -6.37509
       H     7.55830   16.20815   -6.90730
       O     7.95607   15.35764   -6.87280
      H1     7.86429   15.05381   -5.98342
       H    10.95520   17.92554   -4.62154
       O    10.52899   17.42923   -5.38864
      H1     9.68274   17.90719   -5.47931
       H    11.30299   13.86005  -11.15658
       O    11.86722   14.59301  -10.86347
      H1    11.94290   15.14849  -11.68587
       H    14.10004   15.00342   -6.47550
       O    13.26192   15.45010   -6.60477
      H1    12.68136   15.17096   -5.88347

