60
frame 0 | Written by MDAnalysis XYZWriter (release 2.4.3)
       H    -8.86912   -5.36389   -6.03408
       O    -9.55783   -5.85550   -6.47995
      H1    -9.21069   -6.75887   -6.32615
       H   -12.90379   -6.09563   -5.19570
       O   -13.33643   -5.49002   -4.54617
      H1   -12.65512   -4.78980   -4.49688
       H   -12.43547   -7.92210   -6.43467
       O   -12.39060   -7.84131   -5.49682
      H1   -13.25709   -8.13600   -5.21576
       H   -11.27817  -12.35083   -6.16914
       O   -10.52473  -12.24412   -5.58361
      H1    -9.90660  -11.75294   -6.14790
       H   -15.15411   -7.98289   -6.44429
       O   -15.07955   -8.29804   -5.53543
      H1   -15.38968   -9.18733   -5.56755
       H    -9.76417   -9.65184   -2.36712
       O    -9.62974   -9.72069   -1.39373
      H1    -9.39673  -10.65513   -1.30389
       H    -9.47743   -7.17349   -1.13536
       O   -10.24719   -6.63825   -1.33450
      H1   -11.03353   -7.21358   -1.27501
       H   -13.89422  -11.19448   -6.78073
       O   -12.92381  -11.20294   -6.79215
      H1   -12.75180  -11.07546   -7.73170
       H   -13.08285  -11.46433   -2.70452
       O   -13.67340  -10.83410   -2.28531
      H1   -13.07962  -10.05402   -2.18130
       H   -13.25815   -6.92673   -8.00414
       O   -13.31500   -7.89378   -8.10377
      H1   -12.39424   -8.20270   -8.00436
       H   -10.93469  -13.13186   -2.86323
       O   -11.24003  -12.31611   -2.43722
      H1   -11.89650  -12.62478   -1.82016
       H   -11.45666   -9.08548   -4.56012
       O   -10.84583   -9.56022   -3.98478
      H1   -11.01363  -10.50268   -4.20572
       H    -8.08921  -10.42900   -6.39841
       O    -8.93402  -10.65114   -6.82667
      H1    -8.73434  -11.44582   -7.33718
       H    -9.92315   -6.05254   -4.44594
       O    -9.79398   -5.44155   -3.68683
      H1   -10.09929   -5.99928   -2.92898
       H   -13.43264   -5.87717   -2.85845
       O   -13.49641   -6.12005   -1.89423
      H1   -12.93438   -6.89282   -1.85968
       H   -11.34172   -8.82710   -1.05928
       O   -12.20524   -8.42838   -1.00356
      H1   -12.39153   -8.37221   -0.04842
       H   -11.05046   -6.03927   -7.36653
       O   -11.70747   -5.67233   -7.96927
      H1   -11.31610   -5.65179   -8.84601
       H    -7.48468   -9.77666   -3.33035
       O    -7.23845   -8.91834   -2.93810
      H1    -6.45927   -8.70979   -3.46942
       H   -10.67211   -9.13922   -8.52689
       O   -10.88806   -8.78376   -7.66054
      H1   -10.68298   -9.51785   -7.04588
       H    -8.04264   -7.97803   -4.65174
       O    -8.60017   -8.08790   -5.42592
      H1    -9.18489   -8.80811   -5.19656

