60
frame 9 | Written by MDAnalysis XYZWriter (release 2.4.3)
       H    -0.74004  -17.18577    3.09380
       O     0.19679  -17.22912    3.23583
      H1     0.61608  -16.47814    2.85087
       H    -4.55684  -17.90767   -3.63279
       O    -3.71987  -18.17190   -4.05384
      H1    -3.44315  -17.34260   -4.38973
       H     0.78602  -14.88307    1.61669
       O     1.51726  -14.95894    2.29569
      H1     2.35351  -15.15717    1.78462
       H    -2.26210  -14.69788   -4.01260
       O    -2.08773  -13.93801   -3.49115
      H1    -2.91172  -13.43016   -3.59930
       H    -0.52237  -12.83563   -3.50403
       O     0.27716  -12.38764   -3.81067
      H1     0.46882  -11.69382   -3.14465
       H     1.02593  -15.30044   -2.30883
       O     1.19672  -14.37783   -2.16296
      H1     0.87168  -13.89712   -2.94770
       H     3.71204  -16.56454    0.09723
       O     3.78345  -15.62904    0.37634
      H1     4.08195  -15.27172   -0.47449
       H    -4.08054  -12.74175    1.43523
       O    -3.78724  -13.27850    2.20450
      H1    -4.59352  -13.50036    2.71320
       H    -2.48091  -17.71566    4.40265
       O    -2.36663  -18.19530    5.18825
      H1    -1.52075  -17.78222    5.56288
       H    -3.77745  -14.98780   -0.58084
       O    -4.01930  -14.85206   -1.52191
      H1    -3.18790  -14.65642   -1.98335
       H     2.56566  -18.45951    0.51967
       O     3.51560  -18.26002    0.42441
      H1     3.81655  -18.61147   -0.45172
       H    -1.08739  -14.80664    0.36875
       O    -1.37668  -15.73589    0.50587
      H1    -0.98467  -16.34114   -0.12196
       H    -2.39936  -16.11158    1.95829
       O    -2.62767  -16.46851    2.84182
      H1    -2.88058  -15.67714    3.37238
       H    -3.91266  -17.97671    2.20608
       O    -4.38851  -18.75076    2.45527
      H1    -5.12836  -18.48425    2.99916
       H     3.26926  -13.98780   -1.55146
       O     4.05385  -13.79696   -2.04972
      H1     4.63627  -13.25280   -1.45968
       H    -1.05670  -12.30266    1.13408
       O    -0.74374  -13.08452    0.59710
      H1    -0.44340  -12.62195   -0.20435
       H    -2.25658  -18.18986   -2.81572
       O    -1.53694  -18.36083   -2.12949
      H1    -2.02329  -18.94666   -1.48080
       H     0.11238  -17.59363   -2.38759
       O     0.92825  -17.20125   -2.44662
      H1     1.39985  -17.73737   -3.03521
       H     0.79219  -18.28308    2.14007
       O     0.95406  -18.81986    1.29018
      H1     1.33440  -19.67952    1.54705
       H    -2.93462  -13.80363    3.45096
       O    -2.62332  -14.19049    4.31001
      H1    -3.10231  -13.79121    5.08297

