60
frame 0 | Written by MDAnalysis XYZWriter (release 2.4.3)
       H     5.47653  -11.57538    6.73432
       O     5.35233  -12.35989    7.29395
      H1     6.12121  -12.87226    7.02093
       H     8.65715  -12.43416    9.91387
       O     8.75706  -12.46189    8.96291
      H1     8.56208  -11.50673    8.74496
       H     3.26488  -11.23689   10.36359
       O     2.37373  -10.92459   10.27279
      H1     1.86957  -11.73344   10.10955
       H     8.11427   -9.88396    5.36551
       O     7.55437   -9.15446    5.65036
      H1     7.28680   -8.74900    4.81243
       H     4.27870  -13.80379    6.45983
       O     3.37992  -14.01406    6.14444
      H1     3.34590  -14.96704    6.28159
       H     4.47957   -8.63785    8.80108
       O     5.12878   -9.36200    8.61904
      H1     4.93671   -9.62763    7.71188
       H     6.95158  -13.88177    5.58604
       O     6.67569  -13.36990    4.84077
      H1     5.88032  -13.78819    4.52440
       H     5.76505  -13.39469   10.89940
       O     6.35587  -14.12367   11.09900
      H1     6.26105  -14.66849   10.31124
       H     1.99559  -13.18922    6.71840
       O     1.18914  -12.69023    6.94453
      H1     1.54091  -11.84108    7.27859
       H    10.50553  -11.13535    6.15639
       O     9.88904  -11.39441    5.48379
      H1    10.23715  -10.96814    4.67619
       H     6.97663   -7.87685    2.71015
       O     6.60580   -7.93215    3.59903
      H1     5.72728   -8.32920    3.41863
       H     8.70080   -9.28003    8.17455
       O     8.10502   -9.75749    8.75746
      H1     7.26392   -9.56844    8.37449
       H     5.94999   -9.82255    5.64925
       O     5.01188   -9.93206    5.92719
      H1     4.60989  -10.41877    5.17978
       H     4.00667  -12.52591    3.67203
       O     3.50753  -12.04025    4.30648
      H1     3.17894  -12.72993    4.89007
       H     5.31571  -11.00527   10.15693
       O     5.15598  -11.94255   10.25695
      H1     5.03267  -12.14492    9.31826
       H     7.29088  -11.97683    3.32094
       O     7.48541  -11.06650    3.08936
      H1     7.38058  -11.06153    2.14268
       H     5.34124  -16.32776    8.50506
       O     6.13905  -15.96272    8.91568
      H1     6.61924  -15.64227    8.13431
       H     0.41929  -10.04994    7.87340
       O     1.40797  -10.21676    7.76824
      H1     1.67354  -10.41180    8.68801
       H     6.64552   -6.04828    5.70612
       O     5.96550   -6.45562    6.29049
      H1     6.09482   -7.42266    6.27004
       H     8.17865  -14.08219    7.80572
       O     7.50917  -14.54612    7.29649
      H1     8.07419  -15.09737    6.74492

