60
frame 0 | Written by MDAnalysis XYZWriter (release 2.4.3)
       H     0.97946    2.46959   -0.42921
       O     1.77431    2.88059   -0.07961
      H1     1.64271    3.79274   -0.34001
       H     0.25725    1.75925    4.66718
       O     1.10985    2.24904    4.77173
      H1     1.74453    1.64629    5.19441
       H    -1.32440    1.07012    3.24573
       O    -1.46197    1.62107    4.03286
      H1    -1.98647    1.03945    4.60917
       H     3.20505    0.39168   -1.18276
       O     2.65017   -0.10053   -0.56812
      H1     2.98268    0.15408    0.30605
       H     0.08786    5.43199    0.56200
       O    -0.68552    5.40441   -0.03447
      H1    -0.63788    4.56542   -0.45775
       H    -3.54772    3.00403    0.46008
       O    -3.90206    2.77875   -0.39831
      H1    -3.73835    1.84650   -0.49356
       H    -0.89416    1.98028   -1.44851
       O    -1.26053    2.86909   -1.31541
      H1    -2.05472    2.71518   -0.83167
       H     0.82564    2.03488   -4.31932
       O     0.29088    2.63097   -3.79262
      H1    -0.56527    2.47340   -4.18069
       H    -1.70575   -2.07075   -2.15195
       O    -1.61582   -1.15682   -2.43675
      H1    -1.12672   -0.75469   -1.73571
       H    -2.67175   -3.05548   -0.74131
       O    -1.76247   -3.40884   -0.52729
      H1    -1.93486   -4.25148   -0.08337
       H     1.33067   -2.89258    1.01005
       O     2.14464   -3.42330    0.95408
      H1     2.86303   -2.79379    0.83572
       H     4.73433   -0.39970    2.26958
       O     3.85782    0.00584    2.24167
      H1     3.88293    0.51123    3.07851
       H     2.04761    3.04021    3.31325
       O     2.31002    3.52147    2.49862
      H1     2.03924    2.96246    1.76744
       H    -2.20387    2.72805    2.81861
       O    -2.86461    3.21617    2.28377
      H1    -3.01863    3.97837    2.88769
       H    -0.85334   -0.54807    1.88527
       O    -1.20110    0.30736    1.68410
      H1    -2.02037    0.16540    1.19381
       H    -3.35147   -0.26075   -2.57625
       O    -4.19347    0.17057   -2.40556
      H1    -4.81448   -0.42536   -2.82060
       H    -0.46311   -2.72468    2.76401
       O    -0.33633   -2.29253    1.92543
      H1    -0.87954   -2.78006    1.28295
       H    -3.84422   -0.41921   -0.47468
       O    -3.64001   -0.08767    0.43068
      H1    -4.49127    0.02565    0.89433
       H     2.52142   -2.55106   -2.99679
       O     1.77819   -2.31223   -2.40972
      H1     2.20301   -1.69771   -1.78989
       H    -0.01958    0.30403    0.25240
       O     0.13252    0.39016   -0.69736
      H1     1.11463    0.37567   -0.67519

