60
frame 0 | Written by MDAnalysis XYZWriter (release 2.4.3)
       H     1.12583   -9.58123   -8.66137
       O     1.61427   -9.78973   -9.48626
      H1     1.75377   -8.93458   -9.87986
       H     2.14128  -12.14731   -6.32489
       O     2.05983  -11.85820   -5.42054
      H1     2.32426  -12.62128   -4.87948
       H     3.31464  -10.35565  -10.04387
       O     4.09558  -10.84407  -10.41578
      H1     4.37850  -11.33941   -9.65832
       H     3.97226  -13.37243   -4.46533
       O     3.26437  -14.05523   -4.38689
      H1     3.19365  -14.24885   -3.43354
       H     5.37744  -10.44640   -5.16560
       O     5.98417   -9.82918   -4.72073
      H1     6.04302  -10.15547   -3.81244
       H     3.69528   -8.23188   -7.28310
       O     3.89126   -7.92837   -8.18738
      H1     3.80468   -6.97017   -8.16290
       H     1.55566  -16.64681   -6.40083
       O     1.49838  -16.98317   -7.29024
      H1     1.66121  -16.16949   -7.80943
       H     0.23112  -12.19321   -4.38214
       O    -0.61401  -12.61488   -4.21109
      H1    -0.36202  -13.54167   -4.21295
       H    -0.51739  -12.58831   -8.36972
       O     0.20627  -12.76127   -8.92938
      H1     0.77750  -11.98888   -8.77824
       H     3.46842  -12.30025   -2.28479
       O     4.15436  -11.76698   -2.69709
      H1     4.00217  -10.89594   -2.27373
       H    -1.37085  -10.83755   -5.02598
       O    -1.41768   -9.88133   -5.11540
      H1    -1.22281   -9.58615   -4.20858
       H    -0.40277  -14.93891   -6.15682
       O    -0.92655  -14.67793   -6.93955
      H1    -1.82476  -14.49454   -6.57703
       H    -2.24474  -10.92858   -8.23730
       O    -1.84692  -11.60763   -7.68252
      H1    -2.63379  -12.03753   -7.32842
       H     1.26245  -14.27943   -8.79171
       O     2.05648  -14.85374   -8.76101
      H1     2.25842  -14.88737   -9.74072
       H     4.70453  -13.24353   -8.30458
       O     4.68887  -14.21842   -8.24596
      H1     3.76689  -14.44607   -8.41767
       H     1.67358  -15.15846   -4.62255
       O     0.79969  -15.32582   -5.00950
      H1     0.30118  -15.67289   -4.27218
       H     6.45662  -11.97063   -8.89219
       O     5.66763  -11.78054   -8.40649
      H1     5.94624  -11.82806   -7.48688
       H    -0.96471   -8.13321   -7.37967
       O    -0.62445   -9.02191   -7.47141
      H1    -0.77736   -9.45953   -6.59435
       H     1.72719   -8.75810   -5.77229
       O     2.59026   -9.25648   -5.84436
      H1     2.45224  -10.14585   -5.56325
       H     5.53707  -13.41729   -5.81430
       O     5.41918  -12.46348   -5.56695
      H1     5.93594  -12.38510   -4.73354

