60
frame 0 | Written by MDAnalysis XYZWriter (release 2.4.3)
       H     5.38883    5.54738   17.74721
       O     5.33724    5.92747   16.84046
      H1     4.36939    5.92278   16.69652
       H     5.36205    6.19298   13.25225
       O     5.01608    6.43699   12.38136
      H1     5.05544    5.53245   11.92367
       H     7.39230    8.17033   14.73315
       O     7.17536    8.10545   15.67082
      H1     6.58464    7.35472   15.75507
       H     3.04943    6.85433   11.92477
       O     2.45339    6.56671   11.21268
      H1     2.30552    7.34451   10.69205
       H     5.15924    1.83507   17.77079
       O     5.71560    2.59932   17.84297
      H1     6.59595    2.20592   17.88173
       H     1.48059    7.77963   13.40190
       O     2.12925    7.97134   14.07378
      H1     2.57531    8.77857   13.74810
       H     2.60040    6.79092   15.36499
       O     2.85546    6.07427   15.97395
      H1     2.83681    5.28047   15.43261
       H     1.12780    8.84660   15.27502
       O     0.70263    9.51081   15.82415
      H1     1.42498    9.96230   16.25201
       H     3.52006    4.23909   13.84842
       O     3.09594    3.64289   14.48865
      H1     2.16209    3.62492   14.17873
       H     0.15067    2.99008   13.07729
       O     0.58608    2.87014   13.93578
      H1     0.30384    3.69603   14.41111
       H     4.41802   10.05072   14.36046
       O     3.76748   10.14796   13.62698
      H1     3.28030   10.98043   13.87562
       H     6.85035    4.62481   14.42196
       O     5.93000    4.93037   14.44743
      H1     5.75379    5.04092   15.39519
       H     3.40606    0.65825   15.79381
       O     2.88536    0.81591   14.99758
      H1     3.12094    1.71123   14.74224
       H     8.39565    7.40100   16.70785
       O     9.03819    7.20102   17.42883
      H1     9.79582    7.01779   16.89060
       H     9.00544    5.24805   14.43219
       O     8.62527    4.37475   14.30807
      H1     8.68108    3.98174   15.16392
       H     6.02745    9.80949   15.87746
       O     5.11121    9.92371   16.02210
      H1     4.90379    9.13141   16.51381
       H     8.21364    2.59251   16.66055
       O     8.39601    3.51182   16.87454
      H1     7.48114    3.88421   16.87213
       H     5.08926    7.44044   17.64908
       O     4.46342    8.14434   17.82375
      H1     4.96066    8.57762   18.51589
       H    -0.05901    7.39554   18.31597
       O    -0.21234    8.25675   18.72283
      H1    -0.64354    8.05291   19.53798
       H     1.24296    5.62894   17.59133
       O     0.29824    5.56773   17.82675
      H1     0.25246    4.77648   18.41543

