60
frame 8 | Written by MDAnalysis XYZWriter (release 2.4.3)
       H    -7.93314  -16.41018  -10.83425
       O    -8.57444  -17.12140  -10.68338
      H1    -8.11531  -17.92690  -10.89613
       H   -13.48002  -13.61429  -17.70376
       O   -13.88285  -13.20202  -18.45661
      H1   -14.49712  -12.57805  -18.06671
       H   -12.01957  -15.26478  -17.12638
       O   -12.33372  -14.43297  -16.76572
      H1   -11.55323  -13.88797  -16.81095
       H    -7.39128  -16.52266  -15.25055
       O    -7.87943  -16.56458  -14.37927
      H1    -7.48338  -17.36434  -13.90617
       H   -11.23231  -16.44137  -11.92067
       O   -11.38459  -16.40928  -10.98008
      H1   -10.53431  -16.56546  -10.55770
       H   -11.20757  -10.86995  -13.21139
       O   -11.39069  -11.39048  -13.98090
      H1   -10.61540  -11.90139  -14.16424
       H    -9.89285  -13.91571  -12.08510
       O   -10.41755  -13.53100  -11.34533
      H1   -10.84247  -14.33766  -11.01805
       H    -7.73975  -14.95746  -13.67955
       O    -7.88361  -14.05773  -13.28117
      H1    -7.01017  -13.75398  -13.08015
       H   -13.76634  -16.60803  -14.42552
       O   -12.94464  -16.13651  -14.55346
      H1   -12.99287  -15.48642  -15.22452
       H    -8.72021  -13.31284  -14.76884
       O    -9.25639  -12.84337  -15.40297
      H1    -8.59629  -12.31608  -15.94530
       H   -14.88984  -12.86464  -15.33819
       O   -14.87544  -13.83135  -15.05479
      H1   -14.41886  -13.78724  -14.20212
       H    -6.17088  -18.86647  -11.43656
       O    -6.96332  -19.00604  -12.05691
      H1    -7.31208  -19.94799  -12.10432
       H   -12.89526  -13.06341  -13.05824
       O   -13.57040  -13.73432  -12.74843
      H1   -13.28629  -14.62121  -13.00794
       H   -10.36601  -17.80982  -18.01995
       O   -10.48769  -16.87123  -18.05206
      H1    -9.59550  -16.49946  -18.30799
       H   -13.65290  -19.29108  -11.53276
       O   -14.61076  -19.10949  -11.71423
      H1   -14.72292  -18.56445  -12.48566
       H   -11.01367  -16.71066  -14.11586
       O   -10.38623  -17.22237  -13.57037
      H1    -9.51919  -16.92895  -13.89176
       H   -11.50448  -18.46298  -11.40562
       O   -11.88434  -19.29371  -11.12700
      H1   -11.14033  -19.88119  -11.06425
       H   -15.48769  -18.53907  -14.62545
       O   -15.35082  -17.75402  -14.11447
      H1   -16.24479  -17.45832  -13.96917
       H   -13.86112  -14.04123  -10.59054
       O   -14.22330  -13.93191   -9.70320
      H1   -13.89167  -14.67364   -9.20830
       H   -10.32654  -19.49879  -16.54533
       O   -10.34979  -19.43331  -17.52192
      H1    -9.49058  -19.76203  -17.77464

