60
frame 10 | Written by MDAnalysis XYZWriter (release 2.4.3)
       H   -10.03515   13.69790   17.12519
       O    -9.35808   13.15689   17.41223
      H1    -9.58735   12.84165   18.30467
       H   -11.40743   14.82952   15.06959
       O   -11.76458   14.30605   14.30202
      H1   -11.14288   13.55464   14.10864
       H   -11.42143   15.17538   18.79212
       O   -12.25395   14.71042   18.82667
      H1   -12.47268   14.35170   17.96778
       H    -5.43204   15.80496   12.53194
       O    -5.77695   15.34697   13.31652
      H1    -6.61214   14.95401   13.05542
       H    -9.50778   18.49412   18.17578
       O    -9.15333   17.90856   18.87226
      H1    -8.56982   17.32895   18.39266
       H   -11.61996   18.42061   17.22633
       O   -12.30473   17.78911   17.61982
      H1   -12.02649   17.74229   18.54718
       H    -8.84687   14.36249   12.55615
       O    -8.09730   13.93724   13.06091
      H1    -7.96276   13.16910   12.44119
       H    -4.84117   14.54551   18.02895
       O    -4.47034   14.04990   17.30077
      H1    -3.71848   13.65781   17.63071
       H   -10.17316   16.38240   16.30467
       O   -10.90599   15.72266   16.39146
      H1   -11.60141   16.27691   16.80999
       H   -14.01719   14.76561   19.50453
       O   -15.02850   14.74691   19.73692
      H1   -15.03557   15.71234   19.84987
       H    -8.35879   17.58227   14.94561
       O    -9.30269   17.77262   15.00613
      H1    -9.61609   18.10538   14.13123
       H   -12.42113   10.89760   18.11955
       O   -12.76013   11.76410   18.36018
      H1   -12.08595   12.11004   18.93434
       H    -8.24170   15.12960   16.82153
       O    -7.79561   15.94241   17.13844
      H1    -7.31971   16.36385   16.40509
       H    -9.53738   18.88666   11.80221
       O   -10.16931   18.49362   12.41351
      H1   -10.76699   19.15641   12.69609
       H    -5.62830   13.60149   14.22234
       O    -5.57631   12.61818   14.35072
      H1    -5.85710   12.45131   15.25138
       H    -6.45816   16.79386   14.31108
       O    -6.73256   17.21577   15.13037
      H1    -6.04220   17.80852   15.50633
       H    -4.92854   19.45704   19.21605
       O    -5.33438   18.61640   18.92535
      H1    -5.49976   18.83015   17.97754
       H    -2.91202   16.71459   13.71321
       O    -3.30816   16.63808   14.60336
      H1    -3.96746   15.96561   14.52219
       H    -5.83785   12.94586   17.07120
       O    -6.43034   12.19409   16.95547
      H1    -7.31262   12.57486   17.03286
       H    -6.75081   15.40604   18.68324
       O    -6.07053   14.99346   19.25895
      H1    -6.39815   14.09996   19.62734

