60
frame 10 | Written by MDAnalysis XYZWriter (release 2.4.3)
       H     7.95187   16.65947    2.30805
       O     7.98628   16.86375    3.24956
      H1     7.16609   17.37185    3.46655
       H    14.83550   15.15674    3.06477
       O    13.92139   15.30427    3.27003
      H1    13.99430   15.94197    3.92935
       H     7.17418   17.39365    8.06136
       O     7.06862   16.43419    7.80098
      H1     6.21476   16.36967    7.32961
       H    14.18313   17.03574    8.71250
       O    14.07266   17.77130    9.32380
      H1    14.89014   18.14847    9.56169
       H    12.41826   18.36070    3.57890
       O    13.32361   18.18783    3.83800
      H1    13.90270   18.95216    3.71700
       H    10.54678   18.04826    9.76434
       O    10.40620   18.46481    8.85718
      H1     9.56185   18.93651    8.86008
       H    13.12140   16.85312    6.14926
       O    13.79017   16.11171    6.29044
      H1    14.62242   16.44167    5.95266
       H    12.70233   15.37764    2.19863
       O    11.97216   15.59993    1.57737
      H1    12.18753   16.45742    1.19382
       H     8.96070   14.26804    5.29132
       O     9.39786   13.51974    4.91119
      H1    10.32854   13.66115    4.70570
       H     6.99753   19.45276    8.78683
       O     7.72697   19.14619    8.20933
      H1     7.41279   19.41721    7.33878
       H    13.50775   14.25734    5.96383
       O    13.51345   13.28066    5.91100
      H1    13.63115   12.95545    6.86500
       H     8.16844   16.18680    6.41452
       O     8.80283   16.11517    5.73317
      H1     8.38315   16.38426    4.87047
       H    15.73571   19.34505    6.20119
       O    16.70574   19.15747    6.39804
      H1    17.15111   19.95588    6.03732
       H     5.21903   18.05350    3.96108
       O     5.93930   17.79317    4.58310
      H1     5.54472   17.07237    5.15072
       H    12.63217   18.90616    0.99207
       O    13.04599   18.05471    1.07356
      H1    13.32263   18.12473    1.95972
       H    10.88879   18.10280    4.87303
       O    10.51447   18.27387    3.99936
      H1     9.88739   17.56243    3.80072
       H    10.99575   17.65809    7.34330
       O    11.31183   17.23301    6.55685
      H1    10.53939   16.67609    6.18846
       H     8.05724   18.95379    0.13799
       O     7.62321   18.44936   -0.59008
      H1     7.77667   19.05684   -1.33793
       H    10.18947   15.31434    1.72125
       O     9.27080   15.15597    1.44592
      H1     8.98114   14.34593    1.86263
       H    12.42078   12.68371    4.10607
       O    11.61569   12.49045    3.57302
      H1    11.28216   11.64627    3.81343

