60
frame 0 | Written by MDAnalysis XYZWriter (release 2.4.3)
       H     3.11582   16.74252   -4.27111
       O     2.99711   16.64908   -3.31008
      H1     3.84571   16.40954   -2.95094
       H     2.74842   17.86725   -8.62698
       O     3.69756   17.90179   -8.70968
      H1     3.89177   18.77925   -8.35839
       H     8.35040   17.94056   -7.45705
       O     8.75867   17.12749   -7.17925
      H1     8.39683   16.84415   -6.33091
       H    11.28352   14.78591   -6.17988
       O    11.47872   15.71370   -6.24823
      H1    10.81197   16.02671   -6.86047
       H     4.24070   15.31674   -8.46447
       O     4.02370   14.52442   -7.95009
      H1     4.59929   13.88450   -8.32643
       H    10.77464   16.31827   -2.42693
       O    11.11101   16.38168   -1.55424
      H1    12.06747   16.22958   -1.74442
       H     5.37496   15.03402   -1.62485
       O     5.45504   15.79123   -2.21895
      H1     5.45806   16.54271   -1.59188
       H     8.39712   12.65014   -8.71589
       O     8.57432   13.32257   -8.08251
      H1     7.87051   13.97657   -8.19771
       H     1.65759   16.97792   -5.76659
       O     2.63990   16.96124   -5.92402
      H1     2.70339   17.05353   -6.89149
       H     8.59238   19.03693   -0.60115
       O     8.19882   18.38239   -1.21182
      H1     8.55490   18.73226   -2.03366
       H     3.33485   13.70113   -5.40375
       O     2.43286   13.72378   -5.09365
      H1     2.29424   14.64692   -4.77368
       H     8.57866   15.75750   -0.79334
       O     8.16677   15.35650   -1.56682
      H1     7.29617   15.75773   -1.66804
       H     5.74642   13.48173   -5.89403
       O     5.22679   14.18923   -5.50434
      H1     4.87543   14.64936   -6.26745
       H     6.05309   16.58659    0.57292
       O     5.76330   17.37749    0.05781
      H1     6.55663   17.86374   -0.13689
       H     7.12909   15.61398   -9.04134
       O     6.52155   14.88171   -9.07661
      H1     6.68322   14.46594   -9.92818
       H    12.17079   18.22469   -4.23640
       O    11.35674   18.76110   -4.32364
      H1    10.66503   18.10771   -4.43380
       H     6.52557   17.66617   -4.83024
       O     6.11446   18.55610   -4.78111
      H1     6.41449   19.07103   -5.53352
       H     7.69310   15.62299   -4.71368
       O     7.00505   16.05874   -5.23469
      H1     6.28741   15.37991   -5.20310
       H     8.97340   15.55895   -3.15642
       O     9.39143   15.91746   -3.94320
      H1     9.77840   15.16326   -4.40634
       H     3.86637   18.15514    0.06580
       O     3.18031   18.74557   -0.29563
      H1     3.43378   18.83870   -1.21206

