60
frame 0 | Written by MDAnalysis XYZWriter (release 2.4.3)
       H     5.38883    5.54738   17.74721
       O     5.33724    5.92747   16.84046
      H1     4.36939    5.92278   16.69652
       H    -3.42658    4.34910   13.80140
       O    -4.00968    4.41481   14.53072
      H1    -3.69929    5.24716   14.95080
       H    -2.56246    3.42146   17.44689
       O    -2.25179    4.31953   17.54082
      H1    -2.03763    4.41528   18.48297
       H    -3.57338    8.08471   19.03263
       O    -4.32959    8.02545   18.41086
      H1    -4.02195    7.35029   17.78133
       H    -2.87847    5.52782   16.66996
       O    -3.42281    6.27675   16.32185
      H1    -2.77694    6.91755   15.97388
       H    -1.70648    8.66812   14.70994
       O    -1.79229    8.21180   15.53484
      H1    -1.00587    8.54388   16.03483
       H     1.28736    1.37199   18.06556
       O     0.74376    1.31698   17.26136
      H1     1.42422    1.34474   16.55815
       H     2.60040    6.79092   15.36499
       O     2.85546    6.07427   15.97395
      H1     2.83681    5.28047   15.43261
       H     1.12780    8.84660   15.27502
       O     0.70263    9.51081   15.82415
      H1     1.42498    9.96230   16.25201
       H     3.52006    4.23909   13.84842
       O     3.09594    3.64289   14.48865
      H1     2.16209    3.62492   14.17873
       H     0.15067    2.99008   13.07729
       O     0.58608    2.87014   13.93578
      H1     0.30384    3.69603   14.41111
       H    -2.43948    0.62594   17.88321
       O    -2.84514    1.50046   17.83794
      H1    -3.41940    1.36034   17.04834
       H    -0.45026    6.18101   13.40963
       O    -0.13953    7.02033   13.04972
      H1    -0.97516    7.40305   12.65920
       H    -0.69551   -1.73451   18.24757
       O    -1.05548   -0.98417   17.78455
      H1    -0.39892   -0.29536   18.02549
       H     3.40606    0.65825   15.79381
       O     2.88536    0.81591   14.99758
      H1     3.12094    1.71123   14.74224
       H    -0.58534    1.72209   15.15593
       O    -1.43810    1.42313   15.46871
      H1    -1.52506    1.92467   16.30429
       H    -1.46014    4.72961   15.73795
       O    -1.05314    5.23097   14.98053
      H1    -0.85396    6.09311   15.39348
       H     5.08926    7.44044   17.64908
       O     4.46342    8.14434   17.82375
      H1     4.96066    8.57762   18.51589
       H    -0.05901    7.39554   18.31597
       O    -0.21234    8.25675   18.72283
      H1    -0.64354    8.05291   19.53798
       H     1.24296    5.62894   17.59133
       O     0.29824    5.56773   17.82675
      H1     0.25246    4.77648   18.41543

