60
frame 0 | Written by MDAnalysis XYZWriter (release 2.4.3)
       H   -11.46601  -15.75430   -8.96746
       O   -11.40046  -15.96109   -9.89397
      H1   -12.16465  -16.53383  -10.04908
       H   -11.46892  -10.65565   -9.86909
       O   -12.16568  -11.15783   -9.40657
      H1   -12.17184  -11.95909   -9.99996
       H   -10.19382   -9.62099  -14.87216
       O   -11.11950   -9.39453  -14.83645
      H1   -11.18780   -8.61424  -15.37933
       H   -13.79891   -9.47968  -13.18182
       O   -13.25610   -9.88517  -12.46196
      H1   -13.14255   -9.14056  -11.85420
       H   -14.48505  -10.90197  -11.21481
       O   -15.29898  -11.03166  -10.68239
      H1   -16.00034  -10.85602  -11.30493
       H   -10.19832  -15.29140  -11.26140
       O   -10.03885  -14.91688  -12.12992
      H1    -9.10625  -15.07991  -12.32812
       H   -10.54315  -15.77146  -13.49656
       O   -10.82298  -16.38795  -14.17586
      H1   -10.51132  -17.24738  -13.76484
       H    -9.73556  -10.59563  -10.25573
       O    -9.98346   -9.67169  -10.14329
      H1    -9.91125   -9.32200  -11.03680
       H    -9.89754  -13.27623  -11.41780
       O    -9.62449  -12.59026  -10.78216
      H1    -8.73810  -12.42535  -11.10886
       H   -12.64058  -14.30348  -10.69311
       O   -12.85089  -13.40019  -10.92893
      H1   -13.77279  -13.38425  -10.79496
       H    -8.35091  -13.80140  -13.76707
       O    -7.80554  -14.58501  -13.80336
      H1    -7.52790  -14.56848  -14.73561
       H   -10.81616   -7.85176  -11.81804
       O   -10.28475   -8.33443  -12.48962
      H1   -10.96318   -8.82531  -13.01925
       H   -13.11143  -16.91321  -12.46941
       O   -12.75032  -17.44126  -11.74536
      H1   -13.13584  -18.31070  -11.86579
       H    -9.38151  -12.99724   -9.17098
       O    -8.92853  -13.05623   -8.28655
      H1    -9.58752  -13.45634   -7.72986
       H   -12.15100  -12.61244  -12.22991
       O   -11.85698  -12.12078  -12.97992
      H1   -12.16794  -11.20728  -12.79207
       H   -14.88519  -13.21756  -14.04062
       O   -14.18342  -13.78337  -13.74402
      H1   -13.44148  -13.19218  -13.61527
       H   -13.67001  -15.55058  -14.03608
       O   -13.47598  -16.46432  -14.07442
      H1   -12.54862  -16.49070  -13.84159
       H   -15.95470  -13.03947  -11.35138
       O   -15.44787  -13.84595  -11.28232
      H1   -15.13154  -13.95332  -12.18525
       H   -12.51111  -10.65783  -15.76843
       O   -12.86878  -10.89966  -16.62912
      H1   -13.12308  -11.81634  -16.55144
       H    -9.29132  -11.41591  -13.29912
       O    -9.37016  -11.87219  -14.13238
      H1   -10.31753  -11.78922  -14.35936

