60
frame 0 | Written by MDAnalysis XYZWriter (release 2.4.3)
       H   -15.78736  -15.39499    9.69555
       O   -15.20879  -14.73588    9.31117
      H1   -15.73449  -13.93383    9.37427
       H   -10.09242  -12.11902   13.51465
       O   -10.75652  -12.23663   12.83432
      H1   -11.58829  -11.93159   13.21624
       H    -9.62507  -10.81304    9.96122
       O   -10.36003  -10.76049   10.58563
      H1   -10.15974  -11.40541   11.27226
       H    -8.69273  -16.00937    5.66570
       O    -8.66010  -15.06597    5.89834
      H1    -8.56330  -14.97542    6.87601
       H    -8.61029  -10.51528    7.88618
       O    -8.41238  -10.18537    8.79436
      H1    -7.78448  -10.83152    9.08909
       H   -11.72960  -16.94788    6.86468
       O   -12.24448  -17.54526    6.29993
      H1   -12.36700  -17.00888    5.51077
       H   -10.76442  -12.32171    7.22612
       O   -10.60192  -12.91843    7.97037
      H1   -11.18824  -12.60078    8.67434
       H   -14.90586  -11.52932    6.54808
       O   -15.41440  -12.08220    5.94177
      H1   -15.19039  -12.96386    6.31520
       H    -8.06992  -15.20003    8.97860
       O    -8.14703  -14.25033    8.77522
      H1    -9.10742  -14.10766    8.65218
       H    -9.81915  -17.03779    8.12131
       O   -10.59610  -16.47914    8.19992
      H1   -10.30457  -15.72187    8.77101
       H   -13.93410   -9.49675    7.41201
       O   -13.59521  -10.41540    7.26121
      H1   -12.86236  -10.22556    6.66204
       H   -13.30112  -14.47428   12.81125
       O   -14.06598  -14.26463   12.21772
      H1   -13.93837  -14.92040   11.50467
       H   -12.86440  -14.50884    6.32135
       O   -12.07471  -14.13136    5.93445
      H1   -11.71220  -13.80876    6.79085
       H    -8.77399   -9.59503    5.60888
       O    -8.87045  -10.41454    6.06069
      H1    -8.52116  -11.09394    5.46560
       H   -11.34867   -9.03051   10.14288
       O   -11.90201   -8.29892    9.81294
      H1   -11.38829   -7.50432    9.98750
       H   -12.10445  -15.94131    9.46066
       O   -12.06085  -15.13310   10.01441
      H1   -12.93222  -14.76073    9.90917
       H   -14.44626  -12.59906   11.48876
       O   -14.69775  -11.69483   11.26685
      H1   -14.01293  -11.47161   10.62652
       H    -6.89627  -11.91819   10.53501
       O    -6.54802  -12.13904    9.66409
      H1    -7.13997  -12.83919    9.34946
       H   -12.60863  -11.16682    8.56114
       O   -12.44542  -11.71642    9.34591
      H1   -11.69762  -11.31198    9.80879
       H   -11.51060  -12.16716    5.28654
       O   -11.41369  -11.33207    5.73153
      H1   -10.74576  -10.89052    5.19132

