60
frame 10 | Written by MDAnalysis XYZWriter (release 2.4.3)
       H    -3.06655   -3.18739   11.93523
       O    -3.50828   -2.47742   12.37514
      H1    -2.84299   -1.83057   12.70601
       H    -1.36131    3.23905   13.59324
       O    -1.13900    3.12869   14.50968
      H1    -0.23808    2.76166   14.50359
       H    -3.02770    2.02971   17.90165
       O    -2.85095    2.95796   18.02360
      H1    -2.95890    3.46980   17.22071
       H    -1.36719   -0.58261   12.72467
       O    -1.63471   -0.87954   13.61027
      H1    -2.07727   -0.15416   14.01119
       H    -7.81766    0.23554   15.24189
       O    -7.50195    0.89252   16.01699
      H1    -8.11522    1.64982   15.95250
       H     0.91128   -3.20694   14.66984
       O    -0.06070   -2.97651   14.60438
      H1    -0.18191   -2.04040   14.42592
       H    -4.92055    5.87689   19.03972
       O    -4.86601    5.04558   19.56132
      H1    -4.65098    4.45209   18.82143
       H    -1.98160   -3.37598   15.36769
       O    -2.67181   -3.88807   15.72408
      H1    -2.57495   -4.65859   15.13879
       H     1.68262   -0.49681   15.36184
       O     1.24061   -0.59423   16.22608
      H1     1.96729   -0.65836   16.88311
       H    -8.71474   -1.36951   18.31917
       O    -8.95942   -1.28973   17.39270
      H1    -8.34403   -0.54619   17.19232
       H    -5.12564   -2.82746   13.31497
       O    -5.78862   -3.36090   13.79177
      H1    -6.48852   -2.79193   14.06261
       H    -4.12752   -0.41554   17.60013
       O    -3.17950   -0.19214   17.36311
      H1    -2.81587   -1.03963   17.07681
       H    -1.11628    2.66264   18.35866
       O    -0.16425    2.76545   18.28694
      H1     0.22674    1.90344   18.57548
       H    -1.28500   -4.64423   18.83469
       O    -2.20420   -4.56857   18.56252
      H1    -2.25644   -4.17784   17.71832
       H    -8.72305   -1.46140   13.71235
       O    -8.17688   -1.62191   14.55045
      H1    -8.76961   -2.18073   14.99513
       H    -5.54290   -3.18555   15.81972
       O    -5.77075   -3.16516   16.74248
      H1    -5.81524   -2.25659   17.03987
       H    -3.84211   -5.82324   18.20820
       O    -4.65217   -6.16014   17.80191
      H1    -5.14488   -5.39582   17.46399
       H    -2.44895    1.81783   14.94362
       O    -3.03094    0.98483   14.78377
      H1    -3.11138    0.57969   15.69778
       H    -5.66367   -0.02260   18.84501
       O    -5.84621   -0.51729   18.02378
      H1    -6.20735    0.13024   17.42761
       H    -4.50954    1.82378   14.61925
       O    -5.21701    2.37340   14.19063
      H1    -5.64703    2.75276   14.93699

