60
frame 0 | Written by MDAnalysis XYZWriter (release 2.4.3)
       H    14.41129  -11.95882    6.62115
       O    13.63214  -11.77784    6.10289
      H1    13.63875  -12.47502    5.43701
       H    17.95846  -17.48063    2.63280
       O    17.80683  -17.25101    1.73197
      H1    16.84217  -17.41353    1.71000
       H    15.38326  -13.69795    6.65044
       O    16.09674  -13.34104    6.12630
      H1    15.88047  -13.58560    5.22215
       H    14.11705  -15.31753    5.55235
       O    13.66319  -14.80736    6.22887
      H1    13.60587  -15.32020    7.01529
       H    14.60147  -11.22163   10.45599
       O    14.88620  -11.60587    9.61172
      H1    14.83335  -10.88483    8.99551
       H    18.43804  -13.67571    8.06056
       O    19.05356  -13.99677    7.38253
      H1    19.17705  -13.18730    6.86182
       H    17.27415  -17.32670    8.47730
       O    16.53568  -16.74132    8.24357
      H1    16.88190  -15.89997    8.54741
       H    18.70644  -18.97369    8.97265
       O    18.52990  -18.65075    8.07438
      H1    19.24338  -18.03570    7.93570
       H    15.06185  -18.19065    5.58042
       O    15.84389  -18.47543    6.06904
      H1    16.09674  -17.72142    6.61627
       H    19.12903  -14.29735    1.81406
       O    18.90167  -14.79384    1.01884
      H1    18.26511  -15.47432    1.34964
       H    15.09641  -12.68705   13.29036
       O    15.90738  -12.95198   12.86872
      H1    16.25568  -12.07071   12.60294
       H    17.94288  -13.66737    9.89614
       O    17.27757  -14.26843    9.49982
      H1    16.50141  -13.69421    9.39378
       H    17.41472  -14.38507    3.66940
       O    16.59232  -14.20632    3.23183
      H1    16.83674  -13.56013    2.57628
       H    13.42693  -17.10050    8.41228
       O    13.95038  -16.31236    8.59872
      H1    14.89905  -16.50808    8.40754
       H    18.11497  -16.17235   13.03484
       O    18.11044  -15.75559   13.89556
      H1    17.18959  -15.44600   13.99927
       H    17.02422  -16.88141   11.33024
       O    17.88756  -16.43684   11.19064
      H1    17.62457  -15.69556   10.71441
       H    13.74705  -13.06700   10.13564
       O    12.93064  -13.51945   10.37697
      H1    12.68550  -14.02008    9.58923
       H    17.43023  -18.33491    4.94692
       O    18.08373  -17.85262    4.41992
      H1    18.74143  -18.51090    4.10738
       H    13.43230  -15.17996    3.24233
       O    14.14918  -15.76122    3.55463
      H1    14.99646  -15.29195    3.35325
       H    18.57328  -15.09274    5.85000
       O    18.56732  -15.16296    4.88975
      H1    18.40008  -16.08530    4.72175

