60
frame 0 | Written by MDAnalysis XYZWriter (release 2.4.3)
       H    -1.66317   16.58858  -14.85240
       O    -0.83503   16.89896  -14.41749
      H1    -0.62458   16.18909  -13.83106
       H    -5.29360   16.60209  -17.95610
       O    -5.78925   15.97455  -18.59870
      H1    -6.64082   16.34986  -18.34808
       H    -4.13766   18.50266  -17.83078
       O    -4.60144   18.00445  -17.12568
      H1    -4.80073   18.75623  -16.53795
       H    -1.36148   18.75859  -17.38761
       O    -2.15741   19.37061  -17.30479
      H1    -1.81874   19.93129  -16.59563
       H    -5.75596   14.20145  -13.76127
       O    -4.80936   14.15088  -13.92115
      H1    -4.57930   13.24924  -14.13760
       H    -1.26375   10.94219  -18.95071
       O    -2.09198   11.08161  -18.47514
      H1    -2.01391   11.93934  -17.98745
       H     1.26978   13.83925  -16.52820
       O     1.23913   14.74209  -16.18394
      H1     2.19118   14.95991  -15.93872
       H    -2.24729   10.21566  -17.02712
       O    -2.41414    9.87963  -16.08697
      H1    -3.38305    9.79328  -16.13913
       H     2.24283   11.89454  -17.64047
       O     1.90286   12.12493  -16.74197
      H1     1.31580   11.28639  -16.58385
       H    -4.81483    9.84341  -17.74710
       O    -5.08568   10.67961  -17.36209
      H1    -6.02052   10.46787  -17.08337
       H     1.51024   13.41891  -14.69269
       O     1.53021   12.73878  -14.05768
      H1     1.70744   12.00308  -14.63631
       H     0.77091   15.15498  -17.89581
       O     0.46046   15.61304  -18.70929
      H1    -0.45644   15.45682  -18.83674
       H    -3.03861   11.88471  -16.53089
       O    -2.70154   12.81332  -16.65105
      H1    -3.55024   13.24490  -16.75516
       H    -0.10883   14.18284  -12.02273
       O    -0.09160   14.60198  -12.92286
      H1    -0.00564   13.87100  -13.51196
       H    -7.01921   14.10451  -16.73919
       O    -7.81946   14.72033  -16.67973
      H1    -8.33430   14.29705  -17.37453
       H     0.58025    8.93678  -16.59202
       O     0.58443    9.83707  -16.26306
      H1    -0.33948    9.90829  -15.99089
       H    -4.07004   15.93882  -14.43764
       O    -3.59605   16.76400  -14.70575
      H1    -4.07588   16.84014  -15.58888
       H    -3.34501   15.27450  -18.64743
       O    -2.55930   14.75977  -18.55285
      H1    -2.50684   14.40551  -17.66398
       H    -5.50431   14.30452  -17.90146
       O    -5.41438   13.65077  -17.18592
      H1    -5.48284   12.82334  -17.67056
       H     0.41219   16.98945  -17.71731
       O     0.25717   17.78697  -17.21689
      H1     0.18316   17.40865  -16.32164

