60
frame 0 | Written by MDAnalysis XYZWriter (release 2.4.3)
       H     8.00215    1.64448   -0.26146
       O     8.60125    2.32917   -0.60308
      H1     9.41885    2.07881   -0.12997
       H     7.70767    7.48913   -4.87216
       O     8.57724    7.24982   -4.56858
      H1     8.35972    6.82443   -3.73137
       H     6.57098    8.50807    1.53556
       O     6.04375    7.89278    1.00384
      H1     6.76979    7.38580    0.58572
       H     8.02710    2.58533   -2.49119
       O     7.62535    3.11374   -3.17805
      H1     6.88685    2.54149   -3.45268
       H     4.40187    5.16224    1.50178
       O     3.97622    6.02195    1.63709
      H1     4.69866    6.63231    1.43575
       H     4.88300    5.05946    4.25185
       O     5.49186    4.41358    3.88827
      H1     6.35512    4.66990    4.22856
       H    11.60748    3.76195   -3.37524
       O    11.12265    3.46713   -2.58160
      H1    10.67643    4.25809   -2.23879
       H     2.85461    5.52258    0.38209
       O     2.29568    5.49444   -0.38562
      H1     2.84108    5.72441   -1.14769
       H     5.61470    5.48743   -4.36908
       O     5.36583    5.29847   -5.28916
      H1     4.68925    4.60092   -5.23320
       H     9.20397    6.92858   -1.67755
       O    10.00407    6.40127   -1.60920
      H1    10.63861    6.98354   -2.02097
       H     6.79454    4.84358   -0.40363
       O     6.64253    4.90942   -1.34219
      H1     7.06672    4.16916   -1.75161
       H     9.77627    8.21663    0.37318
       O     9.86131    8.56489    1.27285
      H1    10.74692    8.25623    1.57549
       H     5.44860    3.82556    2.33970
       O     4.97021    3.36773    1.62879
      H1     4.15393    3.10856    2.11528
       H     5.69846    8.05160   -4.44506
       O     5.74471    7.70436   -3.54495
      H1     5.19723    8.35835   -3.06203
       H     4.92836    5.01599   -2.14856
       O     4.17677    5.11280   -2.69162
      H1     3.71869    4.24458   -2.66698
       H     6.99630    6.60563   -1.53829
       O     7.55511    7.32125   -1.18856
      H1     7.16577    8.12000   -1.54880
       H     8.22963    5.08436    2.52726
       O     8.13245    4.52144    1.72830
      H1     8.79809    4.98749    1.16239
       H     8.87537    3.03571    2.40031
       O     9.20919    2.19417    2.71244
      H1     9.59951    2.31565    3.58943
       H     7.60283    1.75503    1.98839
       O     6.89496    1.45770    1.42799
      H1     6.20268    2.09902    1.55938
       H     5.26022    2.92315   -1.14218
       O     4.37637    2.53964   -1.32827
      H1     3.83463    2.85492   -0.62661

