60
frame 0 | Written by MDAnalysis XYZWriter (release 2.4.3)
       H   -19.14076  -11.89279  -16.28085
       O   -18.47755  -12.55080  -16.56088
      H1   -17.85346  -12.50412  -15.78311
       H   -16.89919  -12.53925  -18.16362
       O   -16.01470  -12.71372  -17.84249
      H1   -15.94475  -13.66483  -17.74492
       H   -12.25692  -14.35007  -16.61905
       O   -12.99549  -13.83167  -16.98598
      H1   -13.75410  -14.32165  -16.67024
       H   -13.79891   -9.47968  -13.18182
       O   -13.25610   -9.88517  -12.46196
      H1   -13.14255   -9.14056  -11.85420
       H   -16.79314   -7.65848  -11.09886
       O   -16.73236   -7.42241  -12.05247
      H1   -17.68217   -7.39184  -12.30493
       H   -14.48505  -10.90197  -11.21481
       O   -15.29898  -11.03166  -10.68239
      H1   -16.00034  -10.85602  -11.30493
       H   -14.18836   -7.05359  -17.58680
       O   -13.59983   -7.18439  -18.30324
      H1   -12.73858   -7.37457  -17.86147
       H   -16.25888   -6.15136  -16.15311
       O   -15.79660   -6.98531  -16.19160
      H1   -16.50199   -7.65221  -16.43249
       H   -14.13540   -6.92416  -13.80793
       O   -13.85742   -7.69871  -14.30879
      H1   -14.51308   -7.73649  -15.02923
       H   -16.10067  -15.88776  -16.73645
       O   -15.35494  -15.38716  -17.11614
      H1   -14.57685  -15.96513  -17.11194
       H   -17.78171  -15.49789  -13.55459
       O   -18.31235  -14.87987  -14.03708
      H1   -18.09386  -15.10149  -14.97237
       H   -16.42568  -11.26609  -14.63031
       O   -16.01049  -12.00575  -15.12991
      H1   -15.54575  -11.63990  -15.90558
       H   -17.86132   -8.97324  -15.72892
       O   -17.76149   -8.85539  -16.68022
      H1   -17.06495   -9.45578  -16.91345
       H   -18.27172  -17.07427  -16.64276
       O   -17.92238  -16.20078  -16.44843
      H1   -18.63389  -15.59612  -16.72212
       H   -18.27830  -12.16834  -19.30594
       O   -18.17637  -11.27157  -18.98154
      H1   -18.23154  -11.30081  -18.02629
       H   -17.72675  -12.42793  -11.71170
       O   -17.46801  -12.12576  -12.59781
      H1   -17.76831  -12.83496  -13.15781
       H   -14.88519  -13.21756  -14.04062
       O   -14.18342  -13.78337  -13.74402
      H1   -13.44148  -13.19218  -13.61527
       H   -17.46315  -10.11684  -13.21286
       O   -16.98044   -9.69196  -13.93327
      H1   -16.65722   -8.89138  -13.55336
       H   -12.51111  -10.65783  -15.76843
       O   -12.86878  -10.89966  -16.62912
      H1   -13.12308  -11.81634  -16.55144
       H   -14.58727  -10.10665  -16.70811
       O   -15.34488  -10.09824  -17.30904
      H1   -15.32175  -10.96326  -17.68359

