60
frame 0 | Written by MDAnalysis XYZWriter (release 2.4.3)
       H     8.53552    5.96490  -15.47809
       O     8.95597    6.06222  -16.35772
      H1     9.80346    6.52635  -16.18179
       H    12.10191    1.60243  -13.42165
       O    12.54649    2.40337  -13.15585
      H1    13.28112    2.13461  -12.62103
       H     7.48390    2.09304   -9.64703
       O     7.63041    3.01240   -9.88038
      H1     8.54325    3.01223  -10.18239
       H     9.47248    4.78656  -11.72665
       O     9.96251    4.03391  -11.43610
      H1    10.79824    4.38838  -11.09451
       H     8.53094    7.04061   -9.19087
       O     9.37363    6.67841   -9.31073
      H1     9.37641    6.09586   -8.51649
       H    12.90030    5.58463  -11.28997
       O    12.07409    5.52921  -10.80673
      H1    11.98043    6.44001  -10.50577
       H    10.35134    4.39435  -13.19575
       O    10.77452    4.92471  -13.89690
      H1    11.49471    4.32571  -14.16572
       H     7.07300    4.18042  -14.72603
       O     6.90998    5.09724  -14.54954
      H1     6.21589    5.34966  -15.16858
       H    11.10690    6.71319  -14.53578
       O    10.98376    7.53739  -15.05229
      H1    10.54163    8.19795  -14.48307
       H     7.21121    4.18746   -7.01279
       O     6.57502    4.24482   -7.74761
      H1     7.09132    3.75464   -8.39303
       H     8.69235    6.54355  -11.05619
       O     8.09950    6.55237  -11.81964
      H1     7.39220    5.91052  -11.56963
       H     6.26763    8.69425   -9.11435
       O     6.93997    8.07952   -9.44102
      H1     6.46613    7.26185   -9.64202
       H     6.09420    1.24974  -12.54574
       O     6.96080    1.66308  -12.62179
      H1     6.96586    2.31645  -11.92008
       H     7.35081    2.06257  -15.74201
       O     7.98536    2.31346  -15.05519
      H1     7.59326    1.90137  -14.29146
       H    12.36331    3.53819   -9.81663
       O    12.17268    2.62152   -9.58103
      H1    11.86126    2.68988   -8.68341
       H    10.67459    8.01091   -8.76116
       O    11.40656    8.44678   -9.22480
      H1    12.14603    8.21763   -8.68068
       H     4.91739    6.28689  -12.44371
       O     5.58597    5.62438  -12.18946
      H1     5.92339    5.39244  -13.05597
       H     7.04459    8.61062  -14.35257
       O     7.64745    8.58919  -13.60477
      H1     7.52602    7.75009  -13.15794
       H     8.70240    1.03853  -12.74670
       O     9.40065    0.38543  -12.82304
      H1     8.90339   -0.43145  -12.94954
       H    10.65252    0.84342  -11.48179
       O    11.13333    0.49943  -10.70509
      H1    11.54367    1.30736  -10.35199

