60
frame 10 | Written by MDAnalysis XYZWriter (release 2.4.3)
       H     7.74006  -18.11531   -5.06883
       O     6.81256  -18.24934   -5.39388
      H1     6.47770  -17.36977   -5.40747
       H    15.68796  -15.07162    0.19103
       O    15.60444  -14.18368   -0.26276
      H1    15.14685  -14.46661   -1.08486
       H     9.58342  -13.80155   -1.50107
       O     9.40409  -13.00438   -1.98965
      H1    10.12802  -12.85864   -2.59781
       H    12.41112  -17.21166   -4.47083
       O    11.80780  -16.58580   -4.04002
      H1    11.68573  -15.90507   -4.72457
       H    14.68997  -17.24299   -6.44581
       O    13.78134  -17.62531   -6.19592
      H1    13.09076  -17.10992   -6.65328
       H     8.76002  -15.88831   -0.71532
       O     9.46668  -15.42736   -0.31592
      H1     9.30904  -15.55686    0.62673
       H     8.22598  -13.95376   -3.58360
       O     8.14842  -14.79104   -4.07152
      H1     8.41058  -14.54000   -4.95685
       H    12.09131  -18.12301   -0.69114
       O    11.95767  -18.98095   -0.23780
      H1    11.67702  -19.57555   -0.97912
       H     8.55172  -18.22564   -2.74136
       O     8.33902  -18.50859   -1.83383
      H1     7.55295  -17.89180   -1.78612
       H    15.73125  -15.86608   -7.01566
       O    16.29772  -16.56911   -6.65988
      H1    16.55651  -17.18642   -7.33528
       H    15.06559  -18.94779   -1.10568
       O    15.31883  -18.00821   -0.99627
      H1    15.77341  -17.85388   -0.13525
       H    13.16533  -12.58560   -0.96599
       O    12.70110  -13.00068   -1.73651
      H1    13.41256  -13.46270   -2.18945
       H    10.41476  -17.14750   -7.16009
       O    10.83202  -16.34536   -6.93330
      H1    10.15892  -15.65725   -6.95210
       H    15.18169  -15.31239   -2.93967
       O    14.43056  -14.77475   -2.72361
      H1    13.81030  -15.35064   -2.25374
       H    13.84017  -14.60131   -7.12402
       O    14.25692  -14.56044   -8.00619
      H1    14.50751  -13.60202   -8.19519
       H    10.29211  -17.09056   -4.15124
       O     9.33360  -17.36437   -4.01557
      H1     8.78400  -16.53378   -3.94998
       H    13.37725  -13.45052   -5.58855
       O    13.16626  -14.37474   -5.58812
      H1    13.73265  -14.66311   -4.82044
       H    11.97663  -16.46026   -2.31799
       O    12.50394  -16.49623   -1.41416
      H1    11.88773  -16.00937   -0.81544
       H    16.55068  -16.77967   -4.50390
       O    16.58235  -16.55826   -3.59568
      H1    16.11203  -17.31676   -3.19159
       H     8.39204  -14.20641   -7.25520
       O     9.23861  -14.10823   -6.70043
      H1     9.60936  -13.29484   -7.12006

