60
frame 0 | Written by MDAnalysis XYZWriter (release 2.4.3)
       H     3.62893   -4.67926    4.44336
       O     4.25162   -5.34136    4.10115
      H1     4.65436   -5.76196    4.86513
       H     5.62204   -1.14955    5.99364
       O     5.60093   -0.27387    5.61327
      H1     6.13993   -0.35361    4.81106
       H     3.79241   -1.85738    3.21865
       O     3.61520   -2.39561    4.00094
      H1     4.46639   -2.84645    4.02458
       H     8.70437   -3.96276    1.29254
       O     7.98227   -4.63456    1.30211
      H1     7.90002   -4.84203    0.36367
       H     1.61240   -3.79058    2.57958
       O     1.37400   -3.86424    3.51961
      H1     1.75885   -3.06835    3.90849
       H     5.00709   -3.22221    6.70700
       O     5.86653   -2.80904    6.74188
      H1     6.41143   -3.51592    6.34390
       H     7.83584   -0.37994    7.49995
       O     7.30011    0.35729    7.67549
      H1     6.62349    0.30100    6.98936
       H     6.56346   -3.80456    2.11077
       O     5.87458   -3.60884    2.76653
      H1     5.39877   -4.44164    2.77564
       H     8.22587   -4.48597    4.39626
       O     7.38747   -4.35604    4.90680
      H1     6.78427   -4.08244    4.21080
       H     2.05575    0.03890    6.51943
       O     2.05836   -0.69818    5.88157
      H1     1.11220   -0.92582    5.79225
       H     2.89462   -2.72212    7.63303
       O     3.07512   -3.03161    6.75775
      H1     3.11654   -2.16746    6.29825
       H     1.33067   -2.89258    1.01005
       O     2.14464   -3.42330    0.95408
      H1     2.86303   -2.79379    0.83572
       H     4.47750    2.39561    4.95141
       O     3.97948    1.64527    4.56770
      H1     4.28305    0.88001    5.05969
       H     4.73433   -0.39970    2.26958
       O     3.85782    0.00584    2.24167
      H1     3.88293    0.51123    3.07851
       H    -1.01349   -2.84702    5.02611
       O    -1.19160   -3.48773    4.30363
      H1    -0.29790   -3.75994    4.08621
       H     1.34683   -5.68660    5.66546
       O     2.00564   -5.70153    6.37869
      H1     2.19394   -4.79555    6.61930
       H     3.99581   -6.29319    2.34889
       O     3.39366   -6.61859    1.65646
      H1     2.50553   -6.38715    1.99946
       H     6.88662    0.07977    2.52766
       O     6.72368   -0.58771    3.17944
      H1     7.33780   -1.29292    3.02221
       H     6.64552   -6.04828    5.70612
       O     5.96550   -6.45562    6.29049
      H1     6.09482   -7.42266    6.27004
       H     9.51401   -2.61586    7.58067
       O     8.78986   -2.02608    7.79158
      H1     8.10076   -2.41949    7.25579

