60
frame 10 | Written by MDAnalysis XYZWriter (release 2.4.3)
       H    14.01374  -13.30020    4.27157
       O    13.22865  -13.05821    3.79167
      H1    12.71760  -13.87582    3.73241
       H     7.90423  -12.88466    6.02997
       O     8.46395  -13.66905    6.21475
      H1     8.21519  -13.89379    7.13013
       H     8.39161   -9.30029    6.97532
       O     7.84352   -8.88802    6.25219
      H1     8.46605   -8.27310    5.71804
       H     7.23985  -10.96218   10.54813
       O     7.07039  -10.22365    9.87158
      H1     7.92037  -10.22846    9.31226
       H     7.49053  -15.19957    5.34860
       O     7.11066  -15.96447    4.89519
      H1     7.76673  -15.98124    4.17157
       H    11.30452   -8.99108    6.27005
       O    11.52517   -9.90820    6.15563
      H1    12.43169   -9.91136    6.46669
       H    14.73100  -11.86829   10.29486
       O    14.11547  -12.17570    9.61187
      H1    13.18841  -12.10324    9.97764
       H     8.46750  -14.30277    2.94213
       O     8.68805  -15.17862    2.59824
      H1     9.65750  -15.16304    2.64316
       H    11.63478  -11.82321    3.68219
       O    11.06651  -11.08561    3.74782
      H1    11.33703  -10.61056    4.54452
       H    14.14174   -9.60576    7.88271
       O    13.87430  -10.33607    7.27942
      H1    13.66832  -11.05537    7.87989
       H     6.18497  -11.33278    9.00640
       O     5.61491  -12.03525    8.60927
      H1     6.04437  -12.86398    8.69485
       H     7.67929  -10.37634    5.61520
       O     7.38963  -11.16051    5.12312
      H1     8.08117  -11.34567    4.45632
       H     7.82639  -12.36964    2.50264
       O     8.49189  -12.67439    3.17501
      H1     9.30730  -12.65086    2.65765
       H    14.40632  -13.56157    8.02921
       O    14.65396  -13.84851    7.10312
      H1    14.48253  -14.76997    6.97298
       H    12.33414  -15.42979    6.83980
       O    11.61579  -15.30907    7.48648
      H1    11.42186  -14.37179    7.51727
       H    11.20812  -12.68794    9.06644
       O    11.49903  -12.56394   10.03141
      H1    11.72892  -13.48186   10.30894
       H     6.78210  -15.02561    8.69745
       O     7.37935  -14.24450    8.81752
      H1     7.90333  -14.57207    9.54016
       H     8.86020  -17.14750    7.86254
       O     9.68124  -17.65671    7.67639
      H1    10.33999  -16.88641    7.68973
       H    10.14985  -13.21849    6.92387
       O    10.83188  -12.78922    7.51706
      H1    11.05607  -11.93650    7.10424
       H     9.62200   -9.82158    8.89572
       O     9.16593  -10.29805    8.15733
      H1     9.83240  -10.91316    7.79518

