60
frame 10 | Written by MDAnalysis XYZWriter (release 2.4.3)
       H     1.99593   16.09642   16.31184
       O     1.54597   16.22165   17.14597
      H1     2.09639   15.65363   17.79202
       H    -5.43204   15.80496   12.53194
       O    -5.77695   15.34697   13.31652
      H1    -6.61214   14.95401   13.05542
       H     3.30750   19.04352   12.32745
       O     2.67204   19.44092   12.92337
      H1     2.97887   19.26944   13.83310
       H    -4.84117   14.54551   18.02895
       O    -4.47034   14.04990   17.30077
      H1    -3.71848   13.65781   17.63071
       H    -1.25024   15.29288   18.43132
       O    -1.06478   16.16067   18.11314
      H1    -0.12612   16.14901   17.86376
       H    -8.35879   17.58227   14.94561
       O    -9.30269   17.77262   15.00613
      H1    -9.61609   18.10538   14.13123
       H    -0.74670   16.02514   11.19393
       O    -0.56238   15.53185   10.34716
      H1    -1.16945   15.89459    9.72737
       H    -1.22847   15.12579   16.62741
       O    -1.42532   14.55761   15.85248
      H1    -2.11277   15.11562   15.33765
       H     1.18816   18.61979   13.11748
       O     0.30891   18.25002   13.35623
      H1     0.49439   17.31616   13.17566
       H     0.83345   15.24417   14.04974
       O     1.42320   15.71272   13.41680
      H1     1.68125   15.08988   12.78275
       H     0.31840   19.06357   16.09875
       O     1.09423   19.15179   16.67855
      H1     1.23268   18.22151   16.89421
       H    -8.24170   15.12960   16.82153
       O    -7.79561   15.94241   17.13844
      H1    -7.31971   16.36385   16.40509
       H    -3.02306   17.08185   11.56451
       O    -2.24194   17.19729   12.10302
      H1    -1.99447   18.13327   12.09194
       H    -1.12624   19.29624   18.94085
       O    -1.91579   18.72230   18.69431
      H1    -1.65093   17.80790   18.60053
       H    -2.46561   19.23498   17.03203
       O    -2.68702   19.22805   16.06734
      H1    -2.62006   18.28560   15.80339
       H    -6.45816   16.79386   14.31108
       O    -6.73256   17.21577   15.13037
      H1    -6.04220   17.80852   15.50633
       H    -4.93769   18.71263   10.27739
       O    -5.84325   18.35233   10.12095
      H1    -6.01103   18.31789    9.15623
       H    -4.92854   19.45704   19.21605
       O    -5.33438   18.61640   18.92535
      H1    -5.49976   18.83015   17.97754
       H    -2.91202   16.71459   13.71321
       O    -3.30816   16.63808   14.60336
      H1    -3.96746   15.96561   14.52219
       H    -6.75081   15.40604   18.68324
       O    -6.07053   14.99346   19.25895
      H1    -6.39815   14.09996   19.62734

