60
frame 10 | Written by MDAnalysis XYZWriter (release 2.4.3)
       H   -16.27948    4.77876    7.24169
       O   -15.77295    4.22896    6.65134
      H1   -14.99601    4.02816    7.21782
       H   -17.07960    1.11551    5.61092
       O   -16.70564    0.48338    5.01291
      H1   -16.92298    0.71932    4.09857
       H   -16.80313    2.75467    7.02778
       O   -17.45951    2.06928    7.21621
      H1   -18.15602    2.57216    7.64861
       H   -17.79807    0.05727    1.04908
       O   -17.63973    0.28668    1.95087
      H1   -18.05828    1.16730    2.01507
       H   -17.10294    5.64564    3.33585
       O   -17.33557    5.30804    4.19728
      H1   -16.50737    4.98061    4.46424
       H   -13.61356   -1.68090    1.85143
       O   -13.51175   -2.61439    1.75788
      H1   -13.82625   -2.89107    2.58899
       H   -16.98963    1.30051    8.57615
       O   -16.74073    1.26817    9.56311
      H1   -15.91246    0.72599    9.53630
       H   -14.42573   -1.87108    5.25305
       O   -14.15862   -0.93542    5.35830
      H1   -15.01368   -0.47744    5.14363
       H   -15.45963   -4.09098    2.82732
       O   -16.22199   -4.32705    2.29225
      H1   -15.85424   -4.95192    1.67031
       H   -14.98598    3.24555    1.06573
       O   -15.08815    4.19881    0.85862
      H1   -14.80652    4.31361   -0.06526
       H   -13.58845   -4.39729    4.43749
       O   -14.37177   -3.84728    4.28547
      H1   -15.06810   -3.99915    4.99026
       H   -12.08216   -0.46631    8.11585
       O   -12.66947    0.17396    7.77721
      H1   -12.98452   -0.27570    6.98215
       H   -18.60542   -5.33390    4.53612
       O   -18.24889   -4.54549    4.16245
      H1   -17.67557   -4.70576    3.40139
       H   -18.68089   -2.37197   -0.82949
       O   -19.32841   -2.72459   -0.23845
      H1   -19.50485   -2.07683    0.47766
       H   -17.88354   -1.28050    4.98896
       O   -18.67634   -1.78765    4.76359
      H1   -18.36551   -2.62319    4.36894
       H   -19.58101    2.88796    2.90401
       O   -18.80700    2.84678    2.35911
      H1   -18.18601    3.47613    2.71806
       H   -14.40594    1.07466    1.41551
       O   -15.08250    1.62025    1.85393
      H1   -15.91649    1.15262    1.73281
       H   -19.07207    2.73784   -1.05316
       O   -19.62417    3.30908   -0.42656
      H1   -19.34385    2.98676    0.45977
       H   -16.77740   -3.16894    6.66268
       O   -16.44398   -3.88706    6.09330
      H1   -17.09447   -4.16167    5.47256
       H   -17.95572   -1.83075    8.40048
       O   -16.98832   -2.02893    8.38966
      H1   -16.95110   -2.71272    9.07832

