60
frame 10 | Written by MDAnalysis XYZWriter (release 2.4.3)
       H   -13.65486   10.72287   11.62576
       O   -14.45024   10.34153   12.07741
      H1   -15.31788   10.64406   11.73913
       H   -18.65478   11.06609    8.96507
       O   -18.86395   10.31911    9.53515
      H1   -18.37139   10.54769   10.35478
       H   -16.31264   13.63359   14.30708
       O   -15.81205   14.50931   14.17966
      H1   -15.64315   14.78833   15.09613
       H   -13.22034   17.12578    9.22622
       O   -13.95253   17.81348    9.40199
      H1   -14.21525   17.66068   10.30624
       H   -18.43825   17.59680   10.08951
       O   -19.16430   18.20541   10.15253
      H1   -19.69292   18.03263    9.33857
       H   -19.19813   17.29090   17.87263
       O   -19.30619   16.88825   17.01430
      H1   -18.39168   16.71238   16.75460
       H   -16.26302   17.22620   17.02643
       O   -16.63660   16.96707   16.21915
      H1   -16.55790   17.74311   15.58444
       H   -13.77079   15.49180   11.52620
       O   -14.56424   15.85168   11.96539
      H1   -14.81759   15.14986   12.63921
       H   -15.88171   11.22472   15.09714
       O   -16.73437   11.67263   14.97575
      H1   -16.99626   11.91190   15.86848
       H   -16.58632   12.02209   11.44349
       O   -16.87863   11.17784   11.76566
      H1   -17.13244   11.26137   12.66826
       H   -14.46874   17.69316   12.27756
       O   -14.48996   18.66340   12.40594
      H1   -13.66802   18.87878   12.86974
       H   -18.93043    8.84919   15.25014
       O   -18.17234    9.10118   14.74302
      H1   -18.05403   10.00357   14.98875
       H   -18.80112   13.90201    9.03679
       O   -17.95198   14.32186    8.83691
      H1   -18.26483   15.06419    8.30978
       H   -15.87392   18.53196   13.66803
       O   -16.71161   18.74905   14.04344
      H1   -17.37488   18.27454   13.52998
       H   -15.69223   14.41696   11.09446
       O   -16.06393   13.70705   10.64581
      H1   -16.86261   13.96280   10.11764
       H   -17.52433   15.09594   13.29475
       O   -18.49725   15.10982   13.11531
      H1   -18.74963   16.08965   13.02817
       H   -17.73988   11.69049   18.20536
       O   -18.37276   11.57928   17.45098
      H1   -18.88102   12.37899   17.41689
       H   -16.96969   15.93859    9.67759
       O   -16.82788   16.78867   10.11650
      H1   -16.20414   17.24791    9.53187
       H   -19.46706   17.90434   12.04391
       O   -19.40994   17.96269   13.02281
      H1   -19.25077   18.91963   13.19217
       H   -14.78951   13.38002    9.33291
       O   -13.99544   13.22080    8.83992
      H1   -14.22080   13.04976    7.98083

