60
frame 0 | Written by MDAnalysis XYZWriter (release 2.4.3)
       H   -19.61747   -7.30080  -14.68001
       O   -19.23108   -6.37600  -14.55109
      H1   -18.30172   -6.54894  -14.44318
       H   -15.81176   -2.78629  -15.12685
       O   -15.19210   -3.50443  -15.02560
      H1   -15.12127   -3.66466  -15.97833
       H   -19.27629   -5.38022  -16.18226
       O   -19.47894   -5.20874  -17.08732
      H1   -19.04086   -5.85691  -17.57976
       H   -18.88929   -2.43662  -14.20529
       O   -17.99848   -2.75157  -13.95699
      H1   -17.52432   -1.92406  -13.91948
       H   -14.83315   -2.86833  -17.99375
       O   -15.54620   -3.58375  -17.85625
      H1   -15.02047   -4.33735  -18.24975
       H   -12.34711  -11.07150  -18.80940
       O   -12.87453  -11.36713  -19.56989
      H1   -13.60964  -10.71784  -19.51936
       H   -17.20996   -7.88367  -17.60668
       O   -17.21033   -6.92425  -17.49855
      H1   -16.84263   -6.85449  -16.58047
       H   -16.01397  -12.12714  -15.27548
       O   -15.35443  -11.41334  -15.41131
      H1   -15.55957  -10.76928  -14.72964
       H   -16.66839   -9.11985  -13.22944
       O   -15.76587   -8.96597  -13.58842
      H1   -15.53346   -8.23850  -13.00525
       H   -17.55701  -12.07942  -19.72915
       O   -17.46491  -11.86894  -18.78802
      H1   -18.05548  -12.54937  -18.38082
       H   -16.94935  -10.15384  -19.02021
       O   -16.92761   -9.19813  -19.08815
      H1   -15.93657   -9.12898  -18.95975
       H   -14.53592   -3.55619  -11.83181
       O   -14.89263   -4.31739  -12.33182
      H1   -15.03637   -4.06498  -13.27504
       H   -13.34283   -8.83909  -18.72294
       O   -14.22034   -9.16206  -18.48986
      H1   -14.09435   -9.24279  -17.52838
       H   -17.08775   -3.68665  -18.71592
       O   -17.89038   -3.91641  -19.23941
      H1   -18.49437   -4.17345  -18.52696
       H   -18.15275  -10.24583  -15.73435
       O   -18.60568  -10.62512  -16.50129
      H1   -17.92273  -10.92871  -17.09412
       H   -15.43555   -6.04667  -15.15352
       O   -16.28948   -6.47022  -14.96486
      H1   -15.88435   -7.33068  -14.71053
       H   -15.43535   -6.66250  -18.35523
       O   -14.84346   -5.98050  -18.83078
      H1   -13.90951   -6.21369  -18.62369
       H   -12.88872   -5.24786  -15.42450
       O   -13.44681   -5.88211  -14.92134
      H1   -12.95634   -6.68616  -14.94738
       H   -11.46224   -3.89474  -16.79529
       O   -12.39692   -4.05251  -16.72901
      H1   -12.66929   -3.40921  -17.37795
       H   -12.40805   -5.85535  -17.64410
       O   -12.34992   -6.57420  -18.29688
      H1   -11.43160   -6.71955  -18.52142

