60
frame 10 | Written by MDAnalysis XYZWriter (release 2.4.3)
       H   -18.67748    0.27856   -4.38861
       O   -18.37447    1.20081   -4.65242
      H1   -18.03846    1.03054   -5.53830
       H   -17.06357   -1.06337   -9.35094
       O   -16.12726   -1.06431   -9.60227
      H1   -15.66030   -0.54179   -8.95020
       H   -16.40561   -4.70122   -3.01161
       O   -16.52501   -4.05200   -3.67472
      H1   -17.27563   -4.22079   -4.18552
       H   -17.17284   -5.89537   -7.53960
       O   -17.88523   -6.49929   -7.17536
      H1   -18.32867   -6.07647   -6.40172
       H   -15.61110   -2.40092  -10.69227
       O   -15.48700   -3.29746  -11.07497
      H1   -15.61173   -3.31121  -12.00794
       H   -18.09175    1.93165   -9.52496
       O   -17.17869    1.93496   -9.81937
      H1   -16.90939    1.04747   -9.75755
       H   -13.92155   -3.57119   -5.87339
       O   -14.14286   -4.35272   -5.30841
      H1   -14.52379   -4.09095   -4.48418
       H   -15.95409   -3.99454   -7.74384
       O   -15.84349   -4.80985   -8.29379
      H1   -16.15650   -4.40774   -9.11784
       H   -16.22276   -3.20697   -5.90542
       O   -16.69559   -2.88259   -6.65030
      H1   -16.12912   -2.10899   -6.88923
       H   -18.63021   -6.27231  -11.06075
       O   -18.33468   -5.60529  -10.40359
      H1   -17.74321   -6.15414   -9.91606
       H   -19.12548   -1.56532   -9.58041
       O   -18.64792   -0.83817   -9.14947
      H1   -18.77267   -0.95266   -8.20593
       H   -19.34698   -5.62253   -4.53846
       O   -18.78321   -4.97321   -4.99646
      H1   -19.34953   -4.21665   -5.13103
       H   -20.32573   -2.52267   -6.44668
       O   -19.59287   -2.29342   -5.92909
      H1   -18.81173   -2.60080   -6.38948
       H   -16.62171    1.73105   -7.79926
       O   -16.58396    1.47312   -6.83534
      H1   -16.04910    0.64093   -6.84017
       H   -14.20363   -0.54726   -7.42747
       O   -14.81795   -0.79288   -6.73308
      H1   -14.41582   -0.70539   -5.86205
       H   -18.68089   -2.37197   -0.82949
       O   -19.32841   -2.72459   -0.23845
      H1   -19.50485   -2.07683    0.47766
       H   -16.84662   -2.49623   -2.57153
       O   -17.25826   -1.96684   -1.95362
      H1   -16.53440   -1.42491   -1.69748
       H   -19.56183   -1.52901   -3.84875
       O   -19.42085   -0.83645   -3.15420
      H1   -18.53588   -1.06995   -2.76893
       H   -17.39450   -8.38540   -4.56203
       O   -16.56625   -7.97747   -4.33647
      H1   -16.41328   -7.29551   -4.94297
       H   -17.37592    3.15220   -2.37721
       O   -17.77320    2.24944   -2.25614
      H1   -17.94910    1.89943   -3.13540

