60
frame 0 | Written by MDAnalysis XYZWriter (release 2.4.3)
       H    12.18845    5.86088    1.46676
       O    11.69458    5.03923    1.69756
      H1    11.80768    4.98689    2.64826
       H     5.62204   -1.14955    5.99364
       O     5.60093   -0.27387    5.61327
      H1     6.13993   -0.35361    4.81106
       H     9.93488   -2.03467    2.66272
       O    10.07679   -2.54532    1.88625
      H1     9.54008   -2.05395    1.23465
       H    12.39552    3.31065    4.20693
       O    11.73193    3.83113    4.70898
      H1    12.18923    4.65685    4.92891
       H     6.73768    6.17502    4.21660
       O     7.66229    6.25299    3.88594
      H1     8.18061    6.20312    4.68471
       H     8.00215    1.64448   -0.26146
       O     8.60125    2.32917   -0.60308
      H1     9.41885    2.07881   -0.12997
       H     4.88300    5.05946    4.25185
       O     5.49186    4.41358    3.88827
      H1     6.35512    4.66990    4.22856
       H     9.20589   -0.08674    4.11361
       O     9.56863   -0.97059    4.12509
      H1    10.46853   -0.77353    4.39068
       H     6.79454    4.84358   -0.40363
       O     6.64253    4.90942   -1.34219
      H1     7.06672    4.16916   -1.75161
       H     9.49778    2.27544    6.24786
       O     9.87204    2.26758    5.35229
      H1    10.62464    2.88157    5.41980
       H    11.03857   -0.53160   -1.37851
       O    11.39673   -1.01461   -0.63367
      H1    11.18272   -0.40858    0.10728
       H     5.44860    3.82556    2.33970
       O     4.97021    3.36773    1.62879
      H1     4.15393    3.10856    2.11528
       H     6.88662    0.07977    2.52766
       O     6.72368   -0.58771    3.17944
      H1     7.33780   -1.29292    3.02221
       H    14.22668    3.42996    2.66220
       O    13.78254    2.59598    2.90020
      H1    14.42272    2.15936    3.43084
       H    11.78152    3.35544   -0.90939
       O    12.39909    3.28524   -0.18109
      H1    11.97312    3.87372    0.47860
       H    10.54984    1.68429    1.74160
       O    11.06992    1.26619    1.01535
      H1    11.70992    1.92961    0.68196
       H     8.22963    5.08436    2.52726
       O     8.13245    4.52144    1.72830
      H1     8.79809    4.98749    1.16239
       H     8.87537    3.03571    2.40031
       O     9.20919    2.19417    2.71244
      H1     9.59951    2.31565    3.58943
       H     7.60283    1.75503    1.98839
       O     6.89496    1.45770    1.42799
      H1     6.20268    2.09902    1.55938
       H    10.08910    5.89539    6.66853
       O     9.51354    5.48988    5.98001
      H1     9.81885    4.60405    5.87759

