60
frame 0 | Written by MDAnalysis XYZWriter (release 2.4.3)
       H   -16.47782   -3.92673  -15.72708
       O   -17.11157   -4.48332  -16.20013
      H1   -17.97696   -4.23386  -15.82362
       H   -14.34904    1.92596  -17.21754
       O   -14.94779    2.47811  -17.76954
      H1   -15.03249    1.97947  -18.57373
       H   -14.76206   -5.88248  -12.02048
       O   -13.85111   -5.81964  -12.33543
      H1   -13.87249   -5.00312  -12.79533
       H   -17.15348   -1.08918  -13.71488
       O   -17.31328   -0.39468  -13.06537
      H1   -16.77131   -0.61808  -12.29276
       H   -16.24249    1.26727  -13.55840
       O   -15.42411    1.77270  -13.73471
      H1   -15.61458    2.62687  -13.36190
       H   -10.57874   -0.57796  -14.55998
       O   -10.77217   -0.77703  -15.48210
      H1   -11.63048   -0.38357  -15.62751
       H   -12.20973   -1.39482  -18.72963
       O   -13.07641   -1.67385  -19.02012
      H1   -13.32003   -2.39934  -18.45162
       H   -11.50722   -4.03584  -14.58797
       O   -11.99023   -3.58841  -15.29419
      H1   -11.76173   -2.63953  -15.28348
       H   -13.23700   -1.64064  -10.74250
       O   -13.00844   -1.71538   -9.81656
      H1   -13.11675   -0.80994   -9.48480
       H   -16.25888   -6.15136  -16.15311
       O   -15.79660   -6.98531  -16.19160
      H1   -16.50199   -7.65221  -16.43249
       H   -13.13435   -1.55779  -12.63155
       O   -13.90897   -2.04869  -12.35485
      H1   -14.38363   -2.14012  -13.20872
       H   -14.13540   -6.92416  -13.80793
       O   -13.85742   -7.69871  -14.30879
      H1   -14.51308   -7.73649  -15.02923
       H   -11.87746   -0.00323  -12.44437
       O   -11.50228   -0.86443  -12.64857
      H1   -10.66682   -0.88238  -12.16634
       H   -15.01331   -2.20555  -15.54470
       O   -14.44210   -2.58487  -14.84961
      H1   -13.60132   -2.81512  -15.29309
       H   -15.62426   -1.54834   -9.81156
       O   -15.93738   -1.84358  -10.63076
      H1   -15.11108   -1.90139  -11.15287
       H   -14.08051    0.77970  -15.46748
       O   -13.25111    0.89853  -15.91612
      H1   -12.70748    1.40306  -15.32624
       H   -13.14126   -5.29118  -18.24768
       O   -12.84656   -4.45221  -17.80167
      H1   -12.35580   -4.78339  -17.00435
       H   -17.68254    1.80283  -15.84950
       O   -17.14056    1.17749  -16.36092
      H1   -16.74878    1.66869  -17.08677
       H   -16.80995   -0.18864  -18.61876
       O   -17.58370   -0.76370  -18.51460
      H1   -17.55971   -1.31493  -19.30708
       H   -16.81008   -0.61575  -15.87333
       O   -16.81148   -1.57226  -15.63323
      H1   -17.25982   -1.94098  -16.40761

