60
frame 0 | Written by MDAnalysis XYZWriter (release 2.4.3)
       H    -9.37303   -0.07404    9.21462
       O    -9.77869   -0.23696    8.37436
      H1   -10.54931    0.36112    8.49498
       H   -11.28394   -4.86143    3.46382
       O   -12.18728   -4.56173    3.24917
      H1   -12.28004   -3.73768    3.78736
       H   -11.13678   -2.12646    3.16411
       O   -11.43470   -2.09063    4.05627
      H1   -10.84927   -1.44091    4.46893
       H    -7.60157   -7.80979    4.94448
       O    -8.47797   -7.39944    5.03451
      H1    -8.57188   -7.21629    5.98441
       H   -11.74652   -2.88758   12.23777
       O   -11.40291   -2.24100   11.63460
      H1   -11.89820   -2.38788   10.81571
       H    -8.59060   -2.63667   10.03693
       O    -8.60055   -2.53774   11.02040
      H1    -9.52742   -2.41755   11.23404
       H    -9.54329   -4.52221    5.97867
       O    -8.60734   -4.46420    5.69854
      H1    -8.69846   -4.47492    4.72609
       H    -8.00512   -1.73911    4.57254
       O    -7.27282   -2.36182    4.50133
      H1    -7.63773   -3.09767    4.99191
       H   -15.08304   -3.55663    7.08565
       O   -15.26947   -2.71721    6.65148
      H1   -14.38488   -2.38672    6.35683
       H    -9.32550    0.12769    4.48050
       O    -9.41581   -0.64359    5.05052
      H1    -9.06928   -0.40180    5.92380
       H   -11.93749   -7.51371    7.92563
       O   -11.32253   -7.07228    7.32861
      H1   -11.72687   -7.15954    6.45648
       H    -6.87889   -1.37448    6.09898
       O    -7.37303   -1.19646    6.93894
      H1    -7.90243   -2.01079    7.06156
       H    -5.05836   -2.89466    8.85965
       O    -5.30819   -3.61473    9.42338
      H1    -5.76364   -4.24526    8.87822
       H    -7.68048   -5.24642    9.69533
       O    -8.25680   -5.39191   10.44905
      H1    -8.33204   -4.53841   10.91388
       H   -11.09964   -5.96090   11.01559
       O   -10.94331   -5.71760   10.07815
      H1   -10.01742   -5.92761    9.93211
       H   -11.54298   -5.13689    6.60418
       O   -11.49775   -4.20291    6.82430
      H1   -11.97761   -4.10546    7.65222
       H    -8.37195   -8.40012    8.28673
       O    -8.59213   -7.49791    8.04009
      H1    -9.54996   -7.58926    7.84693
       H   -12.03669   -4.05548    9.82375
       O   -12.58681   -3.43615    9.34043
      H1   -13.47233   -3.82210    9.35385
       H    -7.60076   -5.92983    7.88811
       O    -6.81919   -5.38441    7.98211
      H1    -6.77745   -5.02184    7.05193
       H    -9.89198   -2.06634    8.05827
       O    -9.42911   -2.89026    7.94662
      H1   -10.11729   -3.46620    7.60587

