60
frame 0 | Written by MDAnalysis XYZWriter (release 2.4.3)
       H    13.00046   -5.23809   12.87754
       O    13.37294   -5.33655   11.98648
      H1    13.12658   -6.23409   11.68312
       H    10.89856   -5.39502   12.89945
       O    10.72785   -4.96364   13.73938
      H1    11.56591   -4.92898   14.16785
       H    16.04377   -4.36545   17.80112
       O    16.45898   -5.02022   17.20031
      H1    16.81632   -4.45626   16.49877
       H    17.59645   -1.94282   14.99507
       O    17.81608   -2.85579   15.25040
      H1    18.57781   -3.07079   14.69596
       H    15.87075   -5.30870   12.85309
       O    15.80959   -4.71110   13.61298
      H1    16.30623   -5.14209   14.31220
       H    17.15768   -0.30172   18.00584
       O    16.24823   -0.67319   17.82629
      H1    15.97827   -0.13828   17.08720
       H    14.92135    0.28317   18.83540
       O    14.63665    1.16927   19.11940
      H1    14.86853    1.73522   18.36754
       H    15.94652   -0.27766   14.16000
       O    16.91160   -0.29082   14.31215
      H1    17.22013   -0.51414   13.40846
       H    17.68786   -6.24817   18.32771
       O    18.32722   -6.87741   18.66602
      H1    17.94529   -7.71721   18.37536
       H    18.23227  -10.16840   18.23058
       O    17.38457   -9.67313   18.33050
      H1    17.30556   -9.33957   17.42736
       H    11.92891   -3.38685   17.67725
       O    12.58909   -4.00708   17.30797
      H1    13.42139   -3.54501   17.49929
       H    14.15269   -4.45764   14.46585
       O    13.32143   -4.06665   14.75301
      H1    13.49101   -3.98172   15.71195
       H    15.55399   -9.08547   13.40052
       O    15.09699   -8.22613   13.53051
      H1    15.74481   -7.65296   13.98528
       H    14.82771   -2.98376   19.46949
       O    14.91000   -3.00643   18.49406
      H1    15.27798   -2.16278   18.26229
       H    12.82443   -2.76499   13.81388
       O    12.58503   -2.10001   13.17437
      H1    12.67546   -2.48367   12.26590
       H    13.57014   -6.46761   17.55557
       O    14.19353   -6.73891   16.88493
      H1    15.00084   -6.25942   17.08782
       H    16.42696   -3.58655   12.06654
       O    16.80162   -3.23035   11.23888
      H1    16.34130   -3.89424   10.66598
       H    13.31063   -7.41663   13.94590
       O    12.73348   -6.95226   14.58050
      H1    13.37293   -6.76977   15.30345
       H    17.84190   -7.22364   13.95408
       O    17.20476   -7.02816   14.67342
      H1    17.60905   -7.47463   15.42683
       H    14.77372   -9.18747   15.24494
       O    14.94433   -9.20314   16.19796
      H1    14.43937   -8.45885   16.51301

