60
frame 10 | Written by MDAnalysis XYZWriter (release 2.4.3)
       H    14.18376    1.27035  -15.03557
       O    14.43617    0.93508  -15.88611
      H1    15.33229    0.49828  -15.74186
       H    18.76905   -3.13373  -10.76991
       O    19.69786   -2.99346  -10.47432
      H1    20.16700   -3.83860  -10.43748
       H    16.64809   -4.81983  -11.67486
       O    16.31074   -5.64641  -12.05579
      H1    16.26058   -6.30399  -11.37496
       H    15.12559   -5.17203  -13.67369
       O    14.50700   -5.31330  -14.41651
      H1    13.58996   -5.49209  -14.11964
       H    17.80966   -0.21754  -14.64907
       O    17.35704    0.42830  -15.20607
      H1    17.98280    0.56967  -15.92260
       H    15.58189   -3.72411  -14.75750
       O    15.66576   -2.75651  -14.82572
      H1    15.78362   -2.57397  -15.75113
       H    10.77591   -2.85097  -13.21330
       O    11.68472   -3.12382  -13.26096
      H1    12.09850   -2.31071  -13.56880
       H    19.15799   -0.91625  -13.19622
       O    18.61746   -1.54041  -13.69252
      H1    19.22561   -2.25769  -13.95841
       H    13.89579   -2.59734  -11.61918
       O    13.46924   -2.25598  -10.79461
      H1    12.90099   -2.93553  -10.34514
       H    15.77586   -3.71648  -17.53068
       O    15.87615   -2.80276  -17.65090
      H1    16.87348   -2.73176  -17.78339
       H    17.35694   -2.65265  -12.45307
       O    17.21513   -3.06826  -11.58150
      H1    16.72873   -2.41407  -11.09189
       H    19.65608    0.75466   -9.01842
       O    19.59373    1.68271   -8.77676
      H1    18.88909    2.02828   -9.31018
       H    16.22318   -1.78802   -9.23966
       O    16.00064   -1.13890   -9.94729
      H1    15.13805   -1.47100  -10.20016
       H    18.95177   -1.71233  -17.07203
       O    18.82148   -2.33702  -17.81169
      H1    18.59589   -1.78154  -18.57512
       H    13.41512   -5.76972   -8.35055
       O    14.23864   -5.39867   -8.77577
      H1    14.25750   -4.42554   -8.66416
       H    14.04804   -6.13978  -10.88039
       O    13.33682   -6.49781  -11.54958
      H1    12.64578   -5.87097  -11.39924
       H    17.91515   -6.01427  -13.28481
       O    18.72453   -5.59954  -13.53710
      H1    18.82982   -5.69493  -14.49745
       H    15.53553    1.07282  -11.25160
       O    15.19543    1.96919  -11.34515
      H1    14.50795    1.90600  -10.67041
       H    14.29361   -1.96971  -14.47474
       O    13.53434   -1.43341  -14.01294
      H1    13.56616   -0.53617  -14.37405
       H    16.65067   -2.91587   -6.37156
       O    17.19085   -3.12768   -7.17547
      H1    17.10572   -4.09473   -7.31206

