60
frame 9 | Written by MDAnalysis XYZWriter (release 2.4.3)
       H     5.72964   -8.10192    9.25261
       O     5.61638   -7.96478   10.24605
      H1     6.04781   -8.72658   10.60851
       H     4.61671   -2.28568   13.03092
       O     5.25466   -2.65980   12.41810
      H1     5.02507   -2.41370   11.52827
       H     7.76283   -3.94240   12.88760
       O     8.12517   -4.07941   12.00345
      H1     7.48117   -4.57578   11.47955
       H     3.97176   -3.87900    8.83615
       O     4.58537   -3.49241    9.49661
      H1     5.27518   -4.16746    9.68035
       H     1.73566   -6.95431   13.92271
       O     2.30221   -6.53211   14.60366
      H1     3.19668   -6.56069   14.34327
       H     8.30328   -8.89911   13.73130
       O     8.88366   -8.27735   13.28709
      H1     9.06607   -8.65177   12.40056
       H    -0.11273   -7.19659   12.43149
       O     0.80205   -6.88921   12.31272
      H1     0.90221   -6.29680   11.54006
       H     4.66329   -4.76607   16.25964
       O     5.15304   -3.87670   16.17483
      H1     6.04654   -3.99630   15.79535
       H     6.41233   -6.33261   10.20528
       O     6.68459   -5.40081   10.13320
      H1     7.23932   -5.34474    9.36479
       H     4.57440   -9.83458   14.26946
       O     4.99222   -9.16981   13.66759
      H1     4.32264   -8.96601   12.97865
       H     2.27146   -4.79934   10.94218
       O     1.38719   -4.89030   10.63027
      H1     0.98438   -4.02440   10.72559
       H     7.64823   -4.72887   14.66719
       O     7.51640   -3.76093   14.60653
      H1     7.96412   -3.43198   15.37965
       H     4.30582   -4.25824   12.40021
       O     3.99845   -5.04540   11.95143
      H1     4.33228   -4.90360   11.01843
       H     4.78360   -6.25267   13.38823
       O     4.99176   -6.60861   14.27022
      H1     4.93431   -7.60157   14.21511
       H     3.11995   -6.89075   16.66831
       O     3.63793   -6.19884   17.14368
      H1     4.52310   -6.55398   17.32140
       H     3.92405   -8.34456   11.07450
       O     3.29159   -8.74863   11.63581
      H1     3.24874   -9.70257   11.42386
       H     2.45564   -3.29686   14.94377
       O     1.72656   -3.77782   15.31939
      H1     1.90313   -4.66253   14.94908
       H     6.79434   -6.48576   14.68234
       O     7.65155   -6.35193   15.12775
      H1     8.37001   -6.81214   14.61931
       H     6.58982   -6.58006   16.74662
       O     6.16142   -6.88252   17.56065
      H1     6.29545   -6.21741   18.21652
       H     1.10835   -9.23020   16.12888
       O     1.73211   -8.56885   16.28345
      H1     1.86596   -8.16188   15.40603

