60
frame 0 | Written by MDAnalysis XYZWriter (release 2.4.3)
       H   -12.49993    7.59472   -5.96005
       O   -12.31104    8.55240   -5.94238
      H1   -11.33959    8.58555   -5.86750
       H    -7.28984    8.65087   -9.26344
       O    -6.43466    8.59360   -8.78958
      H1    -6.53354    7.77657   -8.27262
       H   -13.18958    5.43162   -6.82770
       O   -12.90984    5.90350   -6.02426
      H1   -12.31064    5.31080   -5.55968
       H   -11.18181    6.91755  -10.17136
       O   -11.30149    6.51432  -11.03668
      H1   -10.62996    6.94129  -11.57174
       H   -13.74196    8.80865   -4.98835
       O   -14.12021    8.92250   -4.10476
      H1   -15.06889    9.07761   -4.30779
       H   -14.75518    5.49350   -3.72003
       O   -14.93388    5.00514   -4.52868
      H1   -14.21781    5.42913   -5.05268
       H   -11.31643    4.89476  -10.57947
       O   -10.92679    4.14155  -10.10383
      H1   -11.69524    3.72964   -9.67937
       H   -15.41707    8.89468   -8.13509
       O   -14.59228    9.24777   -8.49044
      H1   -14.11475    9.44988   -7.64870
       H   -13.06303    6.77218  -12.24588
       O   -13.87399    6.83012  -12.73893
      H1   -14.20999    7.72449  -12.56645
       H   -10.67583   11.65464  -11.10155
       O   -10.33684   11.08977  -10.43210
      H1   -10.08391   11.63457   -9.67797
       H   -10.10852    4.99090   -7.90351
       O   -10.06025    4.11303   -7.47949
      H1   -10.50240    3.57801   -8.14337
       H   -14.71857    5.84046  -11.52950
       O   -14.76524    5.33341  -10.70234
      H1   -15.73003    5.19489  -10.56025
       H    -9.07941    5.39071   -9.95520
       O    -8.07881    5.35734   -9.89616
      H1    -7.91087    5.64988   -8.98570
       H    -8.62940    8.50686  -12.73448
       O    -9.04421    7.66665  -12.52072
      H1    -8.32145    7.00607  -12.66827
       H    -9.63927    9.34015  -10.00897
       O    -8.84633    8.81075   -9.96204
      H1    -8.95093    8.07938  -10.57487
       H   -10.48900   10.72510   -6.08218
       O   -10.17208   10.06260   -6.68647
      H1    -9.22463   10.17350   -6.82028
       H   -13.75933    6.51711   -9.84280
       O   -13.41282    6.92333   -9.05451
      H1   -14.04689    7.64273   -8.89692
       H   -13.89322   10.72776   -9.90060
       O   -13.72542   10.95131  -10.81869
      H1   -12.83118   11.37986  -10.76914
       H   -13.97093    3.16710   -8.36697
       O   -13.55789    4.00370   -8.23249
      H1   -13.99052    4.60269   -8.87175
       H   -10.51312    8.38540   -8.02663
       O   -10.70172    7.48893   -8.35635
      H1   -11.63296    7.44434   -8.51540

