60
frame 0 | Written by MDAnalysis XYZWriter (release 2.4.3)
       H     5.47653  -11.57538    6.73432
       O     5.35233  -12.35989    7.29395
      H1     6.12121  -12.87226    7.02093
       H     4.93204  -16.72303    5.68968
       O     4.25655  -16.85130    6.39724
      H1     3.48710  -17.11648    5.85740
       H     6.22720  -15.60102    4.12199
       O     6.55374  -16.14890    4.83688
      H1     7.22730  -16.71817    4.44441
       H     8.49686  -14.94115   11.16760
       O     9.02850  -15.44441   10.55890
      H1     8.44656  -15.95964   10.00314
       H     8.65715  -12.43416    9.91387
       O     8.75706  -12.46189    8.96291
      H1     8.56208  -11.50673    8.74496
       H     9.60361  -13.19473    4.46697
       O     9.81854  -13.92663    3.86254
      H1     8.96966  -14.07064    3.44771
       H     9.10030  -18.69396    6.90307
       O     8.47597  -18.14015    7.36838
      H1     8.54516  -18.45312    8.27610
       H     4.27870  -13.80379    6.45983
       O     3.37992  -14.01406    6.14444
      H1     3.34590  -14.96704    6.28159
       H     8.22683  -17.82580   11.02316
       O     8.18963  -18.06146   10.05504
      H1     7.23457  -18.17250    9.88527
       H     6.95158  -13.88177    5.58604
       O     6.67569  -13.36990    4.84077
      H1     5.88032  -13.78819    4.52440
       H     5.76505  -13.39469   10.89940
       O     6.35587  -14.12367   11.09900
      H1     6.26105  -14.66849   10.31124
       H    11.22076  -17.16898    3.19462
       O    10.79709  -17.20483    4.04724
      H1    10.56340  -16.30672    4.28652
       H    10.50553  -11.13535    6.15639
       O     9.88904  -11.39441    5.48379
      H1    10.23715  -10.96814    4.67619
       H     9.47437  -16.63958    6.64418
       O     9.60432  -15.82820    6.17668
      H1     9.97663  -15.22907    6.83599
       H    11.57394  -15.71874    8.57647
       O    11.01221  -14.94358    8.64624
      H1    10.28559  -15.24897    9.24408
       H     7.29088  -11.97683    3.32094
       O     7.48541  -11.06650    3.08936
      H1     7.38058  -11.06153    2.14268
       H     8.45770  -19.03568    3.66505
       O     8.36606  -18.07793    3.60809
      H1     9.29200  -17.89006    3.81317
       H     5.34124  -16.32776    8.50506
       O     6.13905  -15.96272    8.91568
      H1     6.61924  -15.64227    8.13431
       H     8.17865  -14.08219    7.80572
       O     7.50917  -14.54612    7.29649
      H1     8.07419  -15.09737    6.74492
       H    10.98461  -18.12129    5.51992
       O    11.16401  -18.91607    6.06649
      H1    11.32785  -18.55453    6.92328

