60
frame 9 | Written by MDAnalysis XYZWriter (release 2.4.3)
       H     9.48448   17.17560    3.01902
       O     9.10345   17.98069    3.43747
      H1     8.20161   17.70365    3.71783
       H     2.74667   17.63090   -3.76593
       O     2.55139   17.56820   -2.85307
      H1     1.69617   18.01916   -2.89637
       H     2.81104   18.09182    0.50026
       O     1.94940   17.92546    0.85740
      H1     1.38292   17.92601    0.09680
       H     7.02206   19.33750   -4.64813
       O     6.42878   18.51281   -4.49214
      H1     6.32248   18.43206   -3.53344
       H    10.07574   19.27817   -4.09896
       O    10.58826   19.45813   -4.91655
      H1    11.46844   19.14453   -4.71191
       H     2.09862   16.16736   -1.44095
       O     1.80254   15.27416   -1.24306
      H1     1.19783   15.34721   -0.54206
       H     5.35614   14.65135    2.64623
       O     5.00783   15.49721    2.23931
      H1     4.23763   15.67176    2.77420
       H     9.56413   15.12005    0.55733
       O     9.72335   14.65247   -0.30330
      H1    10.20067   13.85567   -0.08794
       H     5.11225   18.97750   -1.72105
       O     4.31464   19.59719   -1.75530
      H1     3.65299   18.97613   -2.18503
       H     7.36600   15.06311   -2.34516
       O     7.79639   15.25259   -3.14648
      H1     7.67099   16.23078   -3.24920
       H     9.97076   17.38346   -2.29574
       O     9.44545   18.17121   -2.39527
      H1     8.54357   18.12276   -2.11761
       H     5.92400   17.20165    3.30373
       O     6.38022   17.34705    4.18760
      H1     5.97706   16.60917    4.62470
       H    11.00996   15.53961   -2.87891
       O    11.29249   15.93552   -2.03483
      H1    10.64121   15.62709   -1.38715
       H     3.30369   18.17749   -6.29326
       O     3.29285   18.63591   -5.44688
      H1     4.23236   18.73672   -5.20251
       H    12.49590   18.56046    0.79727
       O    13.15707   17.87003    0.85202
      H1    13.61564   18.07217    1.63771
       H     6.10920   18.93490    1.73295
       O     6.81122   18.30281    1.40366
      H1     7.57145   18.40828    1.96887
       H     3.37438   14.56710   -2.13763
       O     3.92655   13.93641   -2.63215
      H1     3.87042   14.15835   -3.55448
       H     7.07592   18.47758   -0.54196
       O     6.94789   18.75026   -1.48059
      H1     7.19253   19.69198   -1.52646
       H     5.65851   15.28143    0.02879
       O     6.02681   14.49931   -0.38075
      H1     6.95751   14.68534   -0.16588
       H    10.63517   15.68275    2.22612
       O     9.65886   15.75770    2.15101
      H1     9.21031   14.92594    2.55467

