60
frame 10 | Written by MDAnalysis XYZWriter (release 2.4.3)
       H    -7.35385    9.65806  -18.52388
       O    -8.25977    9.99801  -18.56855
      H1    -7.96884   10.88523  -18.62784
       H   -15.67124    5.27429  -19.67153
       O   -14.72849    5.52404  -19.45869
      H1   -14.55015    6.44909  -19.76343
       H    -8.91281    7.90898  -16.04982
       O    -8.36617    8.69414  -15.82953
      H1    -8.31323    9.22395  -16.65602
       H   -10.71539    7.10578  -17.58063
       O   -10.30323    7.67940  -18.24620
      H1   -10.67348    8.53262  -18.05845
       H   -14.04100    8.23018  -11.49139
       O   -13.62178    8.75859  -12.17851
      H1   -13.77490    9.70612  -12.07450
       H   -10.06325    5.50196  -13.82340
       O    -9.86034    5.96076  -14.63346
      H1    -8.98151    5.64879  -14.93353
       H   -13.76160   11.77934  -19.60125
       O   -14.27671   11.51104  -18.82087
      H1   -14.28602   10.55143  -18.91800
       H   -15.39377    4.89250  -14.58969
       O   -14.90229    5.34897  -13.89065
      H1   -14.47846    6.04382  -14.43616
       H   -12.90784   13.85585  -13.65760
       O   -13.62578   13.26369  -13.47863
      H1   -14.40714   13.70525  -13.81965
       H   -10.48032    9.60835  -13.72145
       O   -10.38022   10.04053  -14.59177
      H1    -9.62141    9.66177  -14.98781
       H   -13.55721   13.67931  -17.04088
       O   -14.39922   14.24053  -16.95383
      H1   -14.82756   14.19093  -17.78983
       H   -17.34923    7.92592  -15.50609
       O   -16.53785    8.25402  -15.87267
      H1   -16.51943    9.18866  -15.69483
       H   -11.65164   12.64759  -16.62210
       O   -12.19153   12.98232  -17.42256
      H1   -12.82749   12.23098  -17.58563
       H   -16.17941   12.07424  -15.45108
       O   -15.85524   11.14339  -15.40811
      H1   -15.24979   11.06812  -14.65023
       H   -12.66158    8.95032  -16.78411
       O   -11.90295    9.48256  -16.95566
      H1   -11.47038    9.51574  -16.07043
       H   -15.35658    8.73819  -19.67787
       O   -14.87472    8.83149  -18.85714
      H1   -15.53658    8.63409  -18.18581
       H   -12.68756    6.38114  -16.38674
       O   -11.90953    5.80332  -16.45304
      H1   -11.25481    6.25055  -15.89780
       H   -13.80482    8.09962  -14.00100
       O   -13.91767    7.72221  -14.91719
      H1   -14.90250    7.70552  -14.99879
       H    -9.59230   12.77090  -15.33760
       O   -10.59934   12.61473  -15.24444
      H1   -10.70078   11.75917  -14.73599
       H   -10.83967   12.45769  -18.56622
       O   -10.51968   12.09548  -19.40450
      H1   -10.59441   11.14536  -19.23948

