60
frame 0 | Written by MDAnalysis XYZWriter (release 2.4.3)
       H     4.99787   10.48188   12.14057
       O     4.95307   10.66603   11.20313
      H1     3.99910   10.79818   11.04127
       H     3.04943    6.85433   11.92477
       O     2.45339    6.56671   11.21268
      H1     2.30552    7.34451   10.69205
       H     2.96921   13.35455   14.77038
       O     3.10528   12.41902   14.61956
      H1     2.79780   12.10189   15.48159
       H     1.62967   15.17756   14.72960
       O     2.13229   14.98410   15.53402
      H1     1.41883   14.94236   16.18916
       H     0.41670   15.57726   12.93767
       O     1.36675   15.43042   13.10413
      H1     1.54642   14.63094   12.54618
       H     1.48059    7.77963   13.40190
       O     2.12925    7.97134   14.07378
      H1     2.57531    8.77857   13.74810
       H     2.60040    6.79092   15.36499
       O     2.85546    6.07427   15.97395
      H1     2.83681    5.28047   15.43261
       H     8.08426   10.95692   11.87077
       O     7.57373   11.05270   12.67082
      H1     8.08623   11.78402   13.08392
       H     1.12780    8.84660   15.27502
       O     0.70263    9.51081   15.82415
      H1     1.42498    9.96230   16.25201
       H     4.41802   10.05072   14.36046
       O     3.76748   10.14796   13.62698
      H1     3.28030   10.98043   13.87562
       H    -0.65317   13.54974   16.54229
       O     0.03988   12.91024   16.60972
      H1     0.07011   12.47058   15.76444
       H     7.27551    9.19480   12.89208
       O     7.40098    8.24584   13.04243
      H1     6.82716    7.90542   12.35976
       H     3.50828   13.22828   11.29488
       O     2.60985   13.55661   11.49732
      H1     2.23679   13.38254   10.63548
       H     2.55803   10.65038    9.42863
       O     2.36258   10.23300   10.28046
      H1     1.59536   10.75367   10.58037
       H     6.19520   12.15142   13.35827
       O     5.83934   12.76689   14.02197
      H1     4.92871   12.46286   14.19314
       H     0.93207   11.79118   13.72980
       O     0.02801   11.58986   13.98862
      H1     0.16309   10.87286   14.61754
       H     2.34437   11.54300   17.69953
       O     2.58285   11.14634   16.83090
      H1     3.55441   11.13441   16.89541
       H     6.02745    9.80949   15.87746
       O     5.11121    9.92371   16.02210
      H1     4.90379    9.13141   16.51381
       H     5.51223   12.33294   11.33074
       O     5.24923   13.26693   11.51594
      H1     5.57907   13.39999   12.39470
       H    -1.10555   11.37828   10.62714
       O    -0.26624   11.06766   11.03578
      H1    -0.38414   11.30667   11.95901

