60
frame 0 | Written by MDAnalysis XYZWriter (release 2.4.3)
       H   -12.49993    7.59472   -5.96005
       O   -12.31104    8.55240   -5.94238
      H1   -11.33959    8.58555   -5.86750
       H   -13.18958    5.43162   -6.82770
       O   -12.90984    5.90350   -6.02426
      H1   -12.31064    5.31080   -5.55968
       H   -15.90643    3.60815   -7.35334
       O   -16.03381    2.67106   -7.58103
      H1   -15.82078    2.24680   -6.75056
       H   -16.24155   11.66669   -4.50266
       O   -17.18603   11.71788   -4.57356
      H1   -17.37337   11.90925   -5.51084
       H   -16.11551    5.18674   -5.80721
       O   -16.43247    5.24539   -6.74317
      H1   -17.35716    4.95216   -6.63193
       H   -13.74196    8.80865   -4.98835
       O   -14.12021    8.92250   -4.10476
      H1   -15.06889    9.07761   -4.30779
       H   -14.75518    5.49350   -3.72003
       O   -14.93388    5.00514   -4.52868
      H1   -14.21781    5.42913   -5.05268
       H   -17.05057   13.20848   -6.85377
       O   -17.63538   12.47511   -7.11244
      H1   -17.25760   12.23140   -7.96381
       H   -15.91635    8.94888  -11.50840
       O   -15.20573    9.10448  -12.15088
      H1   -14.75457    9.85855  -11.74799
       H   -15.41707    8.89468   -8.13509
       O   -14.59228    9.24777   -8.49044
      H1   -14.11475    9.44988   -7.64870
       H   -17.52589    8.27948   -4.40204
       O   -16.97722    9.06262   -4.13854
      H1   -17.39732    9.86486   -4.47994
       H   -14.71857    5.84046  -11.52950
       O   -14.76524    5.33341  -10.70234
      H1   -15.73003    5.19489  -10.56025
       H   -17.46810    3.19423   -8.65738
       O   -17.95120    3.33825   -9.46600
      H1   -17.54959    2.64655  -10.05124
       H   -13.75933    6.51711   -9.84280
       O   -13.41282    6.92333   -9.05451
      H1   -14.04689    7.64273   -8.89692
       H   -16.61130    7.06470   -7.39125
       O   -16.85645    7.89395   -7.82740
      H1   -17.04216    7.69283   -8.73590
       H   -13.89322   10.72776   -9.90060
       O   -13.72542   10.95131  -10.81869
      H1   -12.83118   11.37986  -10.76914
       H   -13.97093    3.16710   -8.36697
       O   -13.55789    4.00370   -8.23249
      H1   -13.99052    4.60269   -8.87175
       H   -16.46723   12.07010  -10.58378
       O   -16.24823   12.34117   -9.66541
      H1   -15.24756   12.30776   -9.65935
       H   -17.82797    8.98796  -10.60208
       O   -17.24385    8.22549  -10.62693
      H1   -17.47668    7.72090  -11.43301
       H   -18.05324    4.63192  -10.70407
       O   -17.53777    5.35096  -11.12799
      H1   -17.58170    5.07502  -12.08068

