60
frame 0 | Written by MDAnalysis XYZWriter (release 2.4.3)
       H    -8.86912   -5.36389   -6.03408
       O    -9.55783   -5.85550   -6.47995
      H1    -9.21069   -6.75887   -6.32615
       H    -5.00677    0.35827   -5.54761
       O    -5.38152   -0.52865   -5.49578
      H1    -5.90666   -0.47065   -4.68963
       H    -7.14357   -0.28630   -2.71923
       O    -6.68792   -0.86656   -3.32680
      H1    -7.09868   -1.71958   -3.17676
       H    -4.88677   -2.84841   -0.58104
       O    -4.24997   -2.36511   -1.09549
      H1    -4.61688   -2.36019   -2.00226
       H    -8.08581   -3.88634   -3.39334
       O    -7.93085   -3.36024   -2.59790
      H1    -7.66564   -4.08403   -2.01558
       H    -8.00154   -2.74852   -6.78076
       O    -8.81678   -3.19685   -6.47330
      H1    -9.35564   -2.47491   -6.06562
       H    -5.91939   -6.44379   -3.94802
       O    -6.69187   -6.03734   -4.45192
      H1    -6.55723   -6.34545   -5.36983
       H    -4.11886   -7.52605   -4.16055
       O    -4.22294   -6.82153   -3.50077
      H1    -3.56145   -6.20351   -3.79360
       H    -3.78882   -3.07837   -7.11325
       O    -4.54272   -3.67157   -6.92534
      H1    -5.31648   -3.26857   -7.34709
       H    -3.89777   -6.29357   -8.91084
       O    -3.84047   -6.13626   -7.95394
      H1    -4.15882   -5.22118   -7.84970
       H    -1.70575   -2.07075   -2.15195
       O    -1.61582   -1.15682   -2.43675
      H1    -1.12672   -0.75469   -1.73571
       H    -2.67175   -3.05548   -0.74131
       O    -1.76247   -3.40884   -0.52729
      H1    -1.93486   -4.25148   -0.08337
       H    -4.39697   -6.47129   -1.74043
       O    -4.38701   -6.14834   -0.81500
      H1    -4.49741   -6.95920   -0.33287
       H    -5.22338   -3.48052   -3.89524
       O    -4.61454   -2.82645   -3.56742
      H1    -4.15516   -2.52404   -4.36451
       H    -7.55596   -4.84764   -0.05333
       O    -6.95329   -5.05094   -0.80249
      H1    -6.05921   -5.03337   -0.44557
       H    -6.68238   -0.91920   -8.03267
       O    -6.43838   -1.76693   -7.68784
      H1    -5.85635   -1.60518   -6.95443
       H    -3.35147   -0.26075   -2.57625
       O    -4.19347    0.17057   -2.40556
      H1    -4.81448   -0.42536   -2.82060
       H    -6.91008    0.13320   -5.94512
       O    -7.64199    0.77080   -6.01464
      H1    -8.27666    0.33784   -6.60074
       H    -1.51206   -6.49475   -3.97102
       O    -1.66282   -5.63763   -4.37051
      H1    -1.11534   -5.06864   -3.83236
       H    -1.69722   -1.96555   -6.45039
       O    -2.21646   -2.26709   -7.19953
      H1    -1.59184   -2.26751   -7.91980

