60
frame 10 | Written by MDAnalysis XYZWriter (release 2.4.3)
       H    -8.72829  -10.61937  -11.17018
       O    -8.29767  -10.50896  -12.05581
      H1    -7.41801  -10.15461  -11.73293
       H   -10.93599  -13.51801  -11.02976
       O   -10.63243  -13.95143  -10.19528
      H1   -10.61429  -14.85731  -10.43717
       H    -9.49413  -14.38164  -14.92478
       O    -9.56353  -13.60051  -14.29148
      H1    -8.88279  -13.77600  -13.63709
       H    -9.58839  -12.57896   -9.86592
       O    -8.98741  -11.88900   -9.48394
      H1    -9.27827  -11.81256   -8.55654
       H    -8.98626  -16.13202   -7.90165
       O    -8.29397  -15.45910   -7.99489
      H1    -8.55143  -15.01975   -7.23738
       H    -5.08054   -9.11506  -11.81404
       O    -5.77480   -9.50432  -11.26585
      H1    -5.54578   -9.10557  -10.39975
       H    -6.08958  -12.72451  -13.27043
       O    -6.94863  -12.70516  -12.92342
      H1    -7.25667  -11.87872  -12.61299
       H    -9.93214   -9.86443  -12.09629
       O   -10.74873   -9.41304  -11.80432
      H1   -10.29222   -8.56638  -11.73263
       H    -7.14118   -8.38601   -8.03201
       O    -7.26252   -8.97293   -7.31081
      H1    -6.47201   -8.83459   -6.77316
       H   -10.13796  -10.39773   -6.88833
       O    -9.80091  -11.29549   -6.65003
      H1   -10.55562  -11.86539   -6.51545
       H   -10.12876   -8.07688   -7.76894
       O    -9.81257   -8.37959   -6.93946
      H1    -8.90777   -8.55948   -7.04312
       H    -8.65888  -11.17710   -5.18237
       O    -8.21702  -10.69908   -4.51892
      H1    -8.04960  -11.27271   -3.77296
       H   -11.90969  -12.00653  -13.06449
       O   -12.06626  -12.79190  -12.54051
      H1   -11.90417  -13.51801  -13.14123
       H    -8.06244  -14.71145  -11.09747
       O    -7.58923  -15.52671  -10.75342
      H1    -7.71537  -15.47298   -9.79023
       H   -11.69995  -14.32370   -8.07033
       O   -11.69988  -14.39027   -7.16238
      H1   -11.43928  -15.24983   -6.99694
       H   -10.97941   -8.37927   -9.94471
       O   -11.54573   -8.41451   -9.16344
      H1   -11.93113   -9.31700   -9.21501
       H   -13.26216  -12.15064   -9.37137
       O   -12.76929  -11.48986   -8.89079
      H1   -13.38579  -11.16434   -8.21294
       H    -7.29434  -13.65227   -6.38377
       O    -6.36344  -13.44185   -6.69055
      H1    -6.46426  -12.80045   -7.34359
       H    -6.81662  -10.78649   -8.11164
       O    -6.53708  -11.54168   -8.64125
      H1    -7.34586  -11.93638   -9.03602
       H    -3.53779  -11.25672  -10.47681
       O    -3.90266  -11.74363   -9.74441
      H1    -4.77170  -11.36426   -9.46176

