60
frame 10 | Written by MDAnalysis XYZWriter (release 2.4.3)
       H     8.80973    5.10586  -13.97918
       O     8.25163    4.93851  -13.24794
      H1     8.15982    5.76371  -12.76255
       H    13.11173    9.43661  -13.18336
       O    13.44453   10.28817  -13.46327
      H1    13.81317   10.68066  -12.59954
       H    14.45546    4.19819  -18.72865
       O    15.04021    4.88990  -19.07694
      H1    15.63279    4.38382  -19.65654
       H    13.46039    2.14057  -18.82951
       O    14.03672    2.47989  -18.14841
      H1    14.01603    1.93876  -17.33251
       H    13.83455    6.79754  -16.08911
       O    14.48457    7.26754  -16.59439
      H1    15.20763    6.63400  -16.77668
       H    12.63488    6.76200  -14.18847
       O    12.41113    6.38016  -15.09544
      H1    12.54406    5.42792  -14.97223
       H    13.98969    7.51718  -12.40670
       O    13.07100    7.67237  -12.64871
      H1    12.41414    7.34753  -12.04571
       H     7.36319    5.18289  -16.25725
       O     8.31628    5.32886  -16.33059
      H1     8.43514    6.19573  -15.84760
       H    15.08516    8.46663  -15.64575
       O    15.47682    9.01508  -14.95444
      H1    14.76534    9.57318  -14.64059
       H     7.87680    8.41319  -12.20186
       O     8.13314    7.48025  -12.36294
      H1     8.48569    7.47498  -13.29380
       H    11.66699    6.95105  -18.29217
       O    10.99933    6.64164  -17.66759
      H1    11.44564    6.41569  -16.83444
       H     9.47201    4.27191  -17.09239
       O    10.12613    3.82666  -17.73944
      H1    10.55786    4.63274  -18.01454
       H    10.84643   11.08418  -19.73539
       O    11.10398   10.34014  -19.23056
      H1    12.06719   10.39667  -19.27202
       H     8.25157    8.13818  -15.46282
       O     9.07059    7.65355  -15.20605
      H1     9.81224    8.18115  -15.60514
       H    13.20947    3.62250  -16.40933
       O    12.71573    3.62927  -15.61157
      H1    11.89978    3.18975  -15.89393
       H     9.85320    2.19284  -18.74517
       O    10.06975    1.33983  -19.16670
      H1    11.04168    1.40520  -19.23571
       H    13.66708    7.15247  -17.96978
       O    13.28536    7.12151  -18.85647
      H1    13.83124    6.41306  -19.20840
       H    10.72380   12.52975  -16.69340
       O    11.43184   11.89686  -16.71686
      H1    11.14891   11.21726  -17.34638
       H    17.56594    6.04270  -16.95686
       O    16.77481    5.47965  -16.79857
      H1    16.50427    5.26398  -17.73352
       H     7.28886    6.48641  -19.10896
       O     7.57619    7.14311  -18.40967
      H1     7.88552    6.55504  -17.66557

