60
frame 0 | Written by MDAnalysis XYZWriter (release 2.4.3)
       H    17.36499   -1.50474   11.88717
       O    17.28384   -2.02809   12.68453
      H1    16.36536   -2.01196   12.91221
       H    14.66790    2.72132    9.15535
       O    15.54458    3.11154    8.98616
      H1    15.39269    4.02595    9.37666
       H    12.17167    0.60930   13.35501
       O    12.72109   -0.21242   13.66247
      H1    13.26289   -0.35208   12.82939
       H    14.96996    0.17551   10.97903
       O    14.45030   -0.52738   11.45696
      H1    14.30866   -1.25243   10.83734
       H    14.88895   -2.27733    8.41262
       O    14.80134   -2.59929    9.32140
      H1    15.50313   -3.23404    9.44987
       H    16.00738    2.29098   12.26053
       O    15.70659    2.91233   13.00054
      H1    15.25219    2.41022   13.64892
       H    12.07830   -4.70334   13.88097
       O    11.92981   -3.74872   13.97943
      H1    12.08349   -3.31523   13.11285
       H    13.21421   -3.18869   14.90621
       O    13.68132   -2.72789   15.61924
      H1    12.96886   -2.36484   16.11839
       H    14.06779   -1.04719    5.89847
       O    14.06855   -1.23713    6.80674
      H1    13.20126   -1.54680    7.00022
       H    18.60948   -0.67192    7.32113
       O    17.99545   -0.17930    7.89755
      H1    17.27473    0.21289    7.40837
       H    15.91640   -5.24383    9.13655
       O    16.68083   -4.83199    9.51515
      H1    17.12383   -5.58120    9.90808
       H    18.29672   -0.75983    9.67060
       O    18.61171   -0.74531   10.55278
      H1    19.40970   -0.20264   10.45604
       H    16.31303    1.97670   10.17425
       O    16.29622    1.38536   10.90608
      H1    17.18484    0.95013   10.83185
       H    10.92591   -1.92257    8.20063
       O    10.22367   -1.56412    7.65520
      H1     9.88626   -2.34670    7.19686
       H    11.59733   -0.91348    9.92831
       O    11.22003    0.03671    9.99898
      H1    10.43252    0.06935    9.38120
       H    15.40998    0.93835   15.21335
       O    14.61548    1.37465   14.80575
      H1    14.02042    0.68952   14.47026
       H    16.17876   -4.56524   13.89194
       O    16.16767   -4.72319   12.93379
      H1    16.92054   -4.24882   12.55017
       H    11.54269   -3.24693    9.93033
       O    11.98260   -2.42790    9.54155
      H1    12.88101   -2.71186    9.45545
       H    11.48734    1.31131   11.61045
       O    11.53922    1.78206   12.44626
      H1    12.12684    2.49800   12.18943
       H    12.25086    2.49763    8.51013
       O    12.92630    1.90224    8.82328
      H1    12.42339    1.17953    9.26941

