60
frame 0 | Written by MDAnalysis XYZWriter (release 2.4.3)
       H     7.39364  -16.73667   -6.51130
       O     6.67811  -17.16091   -6.05955
      H1     6.50937  -16.52601   -5.35379
       H     6.33568  -17.65104   -0.61269
       O     6.47468  -17.09231   -1.34072
      H1     7.15747  -17.56495   -1.86646
       H     3.97226  -13.37243   -4.46533
       O     3.26437  -14.05523   -4.38689
      H1     3.19365  -14.24885   -3.43354
       H     7.52948  -15.31579   -8.64106
       O     8.13651  -15.51548   -7.88732
      H1     8.86744  -14.91243   -8.02401
       H     4.89281  -16.41224   -3.95488
       O     5.59210  -15.79766   -3.76280
      H1     6.10706  -16.34445   -3.16120
       H     1.55566  -16.64681   -6.40083
       O     1.49838  -16.98317   -7.29024
      H1     1.66121  -16.16949   -7.80943
       H     2.99777  -17.81426   -6.07278
       O     2.81761  -18.43289   -5.33518
      H1     2.82873  -19.33687   -5.73911
       H     4.70453  -13.24353   -8.30458
       O     4.68887  -14.21842   -8.24596
      H1     3.76689  -14.44607   -8.41767
       H     9.18652  -13.42853   -5.00936
       O     8.46380  -12.84878   -5.21546
      H1     8.57151  -12.72221   -6.17032
       H    11.09667  -18.03296   -7.48303
       O    11.63630  -18.83652   -7.46448
      H1    11.74150  -19.01110   -6.51902
       H    10.47612  -13.89186   -3.37186
       O     9.78032  -14.57589   -3.31414
      H1    10.16941  -15.35779   -3.75777
       H     4.40972  -15.22213   -1.21526
       O     4.46105  -14.42423   -1.74879
      H1     4.92791  -14.70900   -2.56375
       H    11.16518  -16.13382   -5.44597
       O    10.64239  -16.68770   -4.82535
      H1    11.12222  -17.52091   -4.70760
       H     4.79536  -17.28508   -8.57129
       O     4.60955  -17.59365   -7.66656
      H1     5.36015  -17.26358   -7.16379
       H     5.29581  -19.14655  -10.52935
       O     5.50823  -18.22558  -10.45985
      H1     6.24598  -18.06731  -11.07557
       H     7.78138  -18.58832   -4.24331
       O     8.36226  -18.18612   -3.57154
      H1     8.87714  -17.54131   -4.12114
       H     6.33237  -14.22865  -10.80758
       O     6.23916  -15.10130  -10.40775
      H1     5.75643  -14.96741   -9.58793
       H     7.06170  -18.03037   -8.89662
       O     7.91177  -18.48485   -8.88570
      H1     8.55189  -17.76117   -8.91739
       H     5.53707  -13.41729   -5.81430
       O     5.41918  -12.46348   -5.56695
      H1     5.93594  -12.38510   -4.73354
       H     4.78377  -18.02552   -2.82695
       O     3.82436  -17.95063   -2.99168
      H1     3.66344  -18.41169   -3.82397

