60
frame 0 | Written by MDAnalysis XYZWriter (release 2.4.3)
       H    13.85320   14.25440   11.04255
       O    14.60394   13.65548   11.29659
      H1    14.10825   12.91258   11.71100
       H    17.37269    9.23699   13.61494
       O    17.70830    8.39097   13.90249
      H1    17.10308    7.77558   13.49585
       H    18.34384   14.17540   18.05500
       O    18.32192   13.61812   17.24586
      H1    17.95201   14.21647   16.58872
       H    12.60545   10.60563   11.44667
       O    11.65857   10.48168   11.25242
      H1    11.32672   11.38300   11.21621
       H    14.34843    7.03993    9.67485
       O    15.25567    7.34172    9.57083
      H1    15.65419    7.15794   10.42686
       H    16.82399    5.64226   12.16106
       O    16.16185    6.31380   12.09013
      H1    15.47418    6.09756   12.75856
       H    14.54816   14.39809   12.86532
       O    14.08191   14.82482   13.57273
      H1    13.27722   14.25454   13.64949
       H    15.81416    7.93166   17.06347
       O    15.35376    7.11199   16.83001
      H1    14.60703    7.11802   17.43048
       H    15.05741    9.89532   11.38219
       O    14.22358    9.98254   11.86586
      H1    13.94194    9.10879   12.14821
       H    13.92795    6.87557   13.83177
       O    14.64630    6.47954   14.34842
      H1    14.81950    7.10966   15.06198
       H    14.90019   14.01619   15.11806
       O    15.38086   14.12541   15.95960
      H1    14.77446   13.92514   16.69561
       H    16.00885   12.69820   15.89296
       O    16.40244   11.81652   15.89971
      H1    17.29111   12.03511   16.24882
       H    18.28055   11.55410    9.57687
       O    18.42575   11.66814    8.62371
      H1    18.64389   10.81781    8.26748
       H    17.95410   14.64096   13.79545
       O    17.94098   14.88145   14.75129
      H1    17.04962   15.26860   14.86285
       H    18.59325   11.88609   13.86534
       O    19.24608   12.31754   14.42500
      H1    19.00538   13.23769   14.48183
       H    18.49593    7.85417   17.23421
       O    18.04262    8.64333   16.88499
      H1    17.53938    8.25531   16.14037
       H    17.39536   11.24838   12.49719
       O    17.26868   10.96356   13.41511
      H1    16.54576   11.53479   13.74730
       H    16.76597   10.09162    9.89731
       O    16.40993   10.79445   10.42419
      H1    16.16906   11.45284    9.77240
       H    15.14481   11.58865   14.59987
       O    14.92402   11.88476   13.71454
      H1    14.77063   11.01745   13.26004
       H    17.75287   14.43054   11.32350
       O    17.17681   14.40976   12.10382
      H1    16.31246   14.19977   11.72819

