60
frame 0 | Written by MDAnalysis XYZWriter (release 2.4.3)
       H    -3.88993   17.86291    7.94892
       O    -4.45245   17.49761    8.65082
      H1    -4.76222   18.31488    9.06086
       H    -3.64762   16.65689   11.07485
       O    -3.51902   15.71799   11.01431
      H1    -4.13947   15.30000   11.60500
       H    -8.36104   18.66663   10.15009
       O    -9.31074   18.72750   10.07305
      H1    -9.53301   19.06857   10.96538
       H    -9.84664   17.10071    9.14643
       O   -10.20509   16.23580    8.90631
      H1   -10.49680   15.78459    9.73073
       H    -2.55223   18.08161    9.23363
       O    -1.89522   18.71535    9.60048
      H1    -1.35660   18.84934    8.82442
       H    -4.81837   17.67025   13.01208
       O    -5.35941   17.12485   12.47263
      H1    -6.25943   17.27606   12.82590
       H    -3.11505   16.88296   13.89258
       O    -2.37131   16.30993   13.99227
      H1    -2.58160   15.56819   13.38721
       H    -3.14280   18.18300   14.92080
       O    -4.05951   18.42808   14.71181
      H1    -4.07452   19.38285   14.52076
       H    -6.39230   19.73783   10.60158
       O    -6.40516   18.82522   10.26156
      H1    -6.26489   18.31045   11.05516
       H    -5.26040   16.17564    6.97558
       O    -5.12570   15.58596    6.23472
      H1    -5.69156   14.83880    6.51736
       H    -6.64957   12.95252    7.17340
       O    -6.21418   13.63801    7.68594
      H1    -6.92965   14.22492    7.91431
       H    -6.98592   17.67233    5.88039
       O    -7.43709   17.99191    6.67798
      H1    -8.22871   18.44180    6.35062
       H   -10.12880   13.80307    7.41950
       O    -9.27465   14.26906    7.29557
      H1    -9.30898   14.96807    7.93155
       H    -8.78552   17.26636   13.09792
       O    -7.83170   17.28061   12.96220
      H1    -7.68189   16.67733   12.20563
       H    -3.54449   19.04004    6.03953
       O    -3.46707   18.08368    6.12908
      H1    -3.72511   17.75957    5.24956
       H    -4.08484   14.57958    9.66199
       O    -3.90946   13.85324    9.02038
      H1    -4.82461   13.68991    8.68891
       H   -10.80064   17.50981   12.92923
       O   -10.36620   16.70176   13.24607
      H1   -10.47293   16.11222   12.48952
       H    -7.00285   15.72779   10.29598
       O    -7.18034   15.30054   11.13146
      H1    -7.62799   14.47643   10.90337
       H    -7.27300   16.93513    8.11969
       O    -6.77942   16.29677    8.69666
      H1    -5.89448   16.66500    8.59965
       H    -5.81641   15.89009   15.51829
       O    -5.78745   15.29515   14.76054
      H1    -5.61756   15.88591   14.01920

