60
frame 0 | Written by MDAnalysis XYZWriter (release 2.4.3)
       H    -3.29428    5.71018  -10.60942
       O    -2.78646    5.67412  -11.43648
      H1    -2.69794    4.71624  -11.51749
       H    -3.94794    6.87945  -12.40005
       O    -4.39521    7.67874  -12.63416
      H1    -4.11987    8.26572  -11.91248
       H    -0.24707    5.81515  -13.90958
       O     0.05992    5.86518  -12.99598
      H1     0.89490    6.36171  -13.08054
       H    -5.56332    2.21340  -15.53107
       O    -5.23911    2.29959  -16.43069
      H1    -4.33907    1.95575  -16.37919
       H    -2.94843   -1.17733  -13.89734
       O    -2.18915   -0.59260  -13.94328
      H1    -1.74912   -0.68622  -13.08723
       H    -3.54668    4.09145  -14.39460
       O    -3.30117    4.50432  -15.25353
      H1    -4.19323    4.63643  -15.62405
       H    -2.62663    2.01743  -18.07921
       O    -2.61966    1.87286  -17.12559
      H1    -2.36500    2.71630  -16.79729
       H    -1.44494    4.96505  -15.14412
       O    -0.50647    4.96291  -15.41162
      H1    -0.22438    4.04500  -15.40177
       H     0.80648   -0.28254  -14.84288
       O     1.41288    0.40967  -14.58878
      H1     0.99054    1.14719  -15.02181
       H    -5.02775    0.13045  -13.93687
       O    -4.63772    0.66932  -13.26454
      H1    -3.78588    0.24220  -13.08630
       H    -6.42745   -0.16458  -10.84869
       O    -6.23093   -0.75075  -11.56318
      H1    -5.65467   -0.28927  -12.21086
       H     0.16432   -0.55657  -11.55579
       O    -0.76432   -0.61340  -11.78341
      H1    -1.19709    0.15643  -11.39844
       H    -6.45525    4.12001  -12.46287
       O    -6.15490    3.19732  -12.42365
      H1    -6.81317    2.77477  -12.94920
       H    -1.66854    1.18292  -14.21497
       O    -1.43089    2.09245  -14.36566
      H1    -0.81439    2.25497  -13.63562
       H    -2.75742    2.04513  -11.52509
       O    -2.52851    1.40453  -10.83944
      H1    -3.32995    0.93433  -10.72361
       H    -1.05729    5.00710   -9.87321
       O    -0.73162    4.24001   -9.38682
      H1     0.26363    4.33475   -9.42858
       H     0.16719    3.85377  -12.57828
       O    -0.05326    2.97910  -12.34324
      H1    -0.29760    3.00178  -11.39629
       H    -1.55648   -0.74751  -15.65494
       O    -1.32650   -0.55294  -16.57286
      H1    -1.75638    0.32003  -16.69191
       H    -4.06965    2.89819  -12.74957
       O    -3.18517    3.29213  -12.70522
      H1    -2.68133    2.85427  -13.40068
       H    -2.79685    6.33690  -14.80224
       O    -2.45577    7.19521  -15.06732
      H1    -2.58701    7.73624  -14.29212

