60
frame 10 | Written by MDAnalysis XYZWriter (release 2.4.3)
       H     4.68645   -1.69241   12.70152
       O     4.66815   -2.32202   11.95377
      H1     5.14037   -1.88141   11.21381
       H     8.16566   -3.78865   12.33799
       O     8.44340   -3.95251   11.42386
      H1     8.01526   -4.72778   11.05340
       H     5.04997   -7.48671    6.25466
       O     5.56503   -7.17678    6.99591
      H1     6.40163   -7.58753    6.88212
       H     5.29938   -3.15717    8.87669
       O     6.14038   -2.92430    9.23883
      H1     6.42074   -3.71912    9.68576
       H     3.21167   -2.92335    7.89315
       O     3.80390   -3.63717    7.69700
      H1     3.42649   -4.35106    8.21305
       H     5.59978   -1.30714    5.95140
       O     5.03910   -0.58420    5.51578
      H1     5.05537    0.14833    6.10886
       H     7.63888   -6.07960    6.47530
       O     8.07746   -5.62021    7.22677
      H1     8.98486   -5.96646    7.26959
       H     6.82264   -6.62973    9.89488
       O     7.15169   -5.70806    9.75786
      H1     7.26580   -5.64119    8.80012
       H     2.65807   -4.68972   11.21038
       O     1.67699   -4.95218   11.18167
      H1     1.28647   -4.11178   11.44186
       H    10.16859    0.18345   12.64210
       O    10.36467    0.14414   11.69476
      H1     9.62006   -0.19813   11.21611
       H     8.57319   -1.09941    9.52321
       O     8.21157   -1.16656   10.46113
      H1     8.26938   -2.08783   10.77520
       H     6.30255   -0.93518    9.72283
       O     5.63493   -0.23643    9.76891
      H1     5.86811    0.37134   10.52058
       H     4.88993   -3.98471   11.72871
       O     4.70062   -4.94050   11.66615
      H1     5.37201   -5.30947   11.02558
       H     9.19166   -2.15545    7.60262
       O     8.72438   -1.30870    7.71424
      H1     7.98087   -1.39609    7.11682
       H     3.15368   -0.29989    7.39600
       O     2.40525   -0.82790    7.64355
      H1     1.76452   -0.22198    8.09917
       H     4.76058   -3.64063    5.10519
       O     4.72516   -3.66944    4.15610
      H1     5.44420   -3.12407    3.78472
       H     7.10811   -0.82969   13.43493
       O     7.30780   -0.30596   14.18824
      H1     6.92158   -0.81195   14.87794
       H     6.31418   -2.98684    7.31460
       O     6.60319   -2.90357    6.41349
      H1     7.20923   -3.65980    6.22517
       H     5.29862    0.87001    8.45435
       O     5.06016    1.34360    7.62689
      H1     5.22732    2.26265    7.65453
       H     7.73745    2.56557    9.58640
       O     8.31337    1.86450    9.19899
      H1     7.95536    1.06485    9.62069

