60
frame 0 | Written by MDAnalysis XYZWriter (release 2.4.3)
       H    12.67592  -12.92362   -1.99700
       O    12.02759  -12.72094   -2.67638
      H1    12.56748  -12.59939   -3.46910
       H    10.19342   -7.01267    0.41418
       O    10.03528   -6.52577   -0.42711
      H1     9.69480   -7.17087   -1.10357
       H    14.57889   -9.33601   -1.10302
       O    13.82526   -9.85118   -1.42711
      H1    14.17998  -10.75030   -1.50237
       H    10.13154  -10.35711   -3.72067
       O    10.84304  -10.03896   -3.12949
      H1    10.92648  -10.75184   -2.51086
       H     6.90045   -8.26934   -1.15856
       O     6.57369   -8.32470   -0.27496
      H1     7.23711   -7.83068    0.24135
       H    12.20453   -6.16470   -1.51083
       O    13.16801   -6.19302   -1.37193
      H1    13.32863   -5.33815   -0.93229
       H    10.91480   -6.98189    3.15414
       O    11.23711   -6.69247    2.27361
      H1    12.04001   -7.19164    2.14758
       H    10.36966  -13.91731    0.88698
       O    10.05664  -12.99010    1.04805
      H1    10.21850  -12.87087    2.01242
       H    10.14777   -7.07236   -3.53660
       O     9.66806   -7.77136   -3.06202
      H1    10.26841   -8.54833   -3.13247
       H     8.37302   -6.55031    1.59766
       O     8.46585   -7.50328    1.64651
      H1     9.31000   -7.63145    2.13144
       H    12.34985  -11.78659    0.14185
       O    12.92624  -12.56104    0.27735
      H1    12.37830  -13.15674    0.82483
       H    13.54868   -7.54943    0.54002
       O    13.42764   -8.13070    1.34303
      H1    12.96527   -8.85938    0.90006
       H    11.08715   -9.81531    0.06301
       O    11.90900  -10.18873    0.36039
      H1    12.53195   -9.98664   -0.33590
       H     8.45974   -9.09784   -0.73818
       O     9.36013   -9.40205   -0.62049
      H1     9.35375  -10.08044   -1.32473
       H     7.29088  -11.97683    3.32094
       O     7.48541  -11.06650    3.08936
      H1     7.38058  -11.06153    2.14268
       H    14.60364   -7.23513   -1.03356
       O    15.46686   -7.64583   -1.13760
      H1    15.91817   -7.42631   -0.30542
       H     9.62599  -12.78351   -0.97499
       O     8.98266  -12.42577   -1.63930
      H1     8.82282  -13.20673   -2.18919
       H     9.43153  -10.63330    2.77213
       O    10.33121  -10.28183    2.85233
      H1    10.76614  -10.47992    2.00122
       H    13.79761   -9.34205   -3.45292
       O    13.59089   -9.29527   -4.38936
      H1    12.66684   -8.98615   -4.40713
       H    15.24513  -12.17122    2.43546
       O    14.39851  -11.72876    2.53568
      H1    13.90883  -12.02041    1.75385

