60
frame 10 | Written by MDAnalysis XYZWriter (release 2.4.3)
       H    10.25405   -2.69711   -2.31230
       O    11.10451   -2.43706   -2.76598
      H1    11.79274   -2.42806   -2.03024
       H    11.88274   -7.50718   -8.61063
       O    12.46570   -7.09446   -7.90301
      H1    13.07739   -7.74920   -7.62553
       H    13.52901   -3.54999   -1.42341
       O    13.32689   -2.60407   -1.30983
      H1    12.82260   -2.51400   -0.50806
       H    15.69558   -1.46994   -3.80767
       O    15.94405   -0.79305   -3.11032
      H1    15.13495   -0.64684   -2.63588
       H    12.71539   -6.30654   -0.92815
       O    13.24928   -5.48264   -0.87349
      H1    13.73803   -5.56999   -0.07771
       H    14.89418   -8.64237   -1.47614
       O    15.73711   -8.48395   -1.99086
      H1    16.04510   -7.69910   -1.51129
       H    11.77291   -8.10457   -1.03294
       O    11.32535   -7.23568   -0.90998
      H1    11.13470   -7.00867   -1.82452
       H     8.66357   -5.53907   -4.52166
       O     9.08410   -6.30840   -4.83868
      H1     9.00373   -6.22839   -5.76968
       H    12.67925   -9.80782   -4.29336
       O    12.92117   -9.27222   -5.09374
      H1    13.84237   -8.97342   -4.85548
       H    17.02558   -4.30838   -3.23898
       O    16.75126   -4.80612   -4.00604
      H1    15.87794   -5.22061   -3.84847
       H    15.77622   -8.11583   -3.81906
       O    15.66296   -8.13637   -4.76810
      H1    15.18155   -7.29835   -5.01720
       H    11.44892   -4.88366   -0.10939
       O    10.85827   -4.61180    0.60928
      H1    10.10186   -5.24577    0.64774
       H    13.41512   -5.76972   -8.35055
       O    14.23864   -5.39867   -8.77577
      H1    14.25750   -4.42554   -8.66416
       H    12.32102   -3.54149   -6.08394
       O    12.89576   -3.02655   -6.64383
      H1    12.65191   -2.06514   -6.55585
       H    11.99453   -3.40833   -8.00640
       O    11.37007   -3.45726   -8.73118
      H1    10.58253   -3.00719   -8.44396
       H    14.06627   -5.70691   -2.74843
       O    14.11287   -5.56503   -3.74416
      H1    13.27842   -5.13586   -3.91341
       H    14.70390   -2.69815   -5.61392
       O    15.55005   -2.71727   -5.10313
      H1    15.76881   -3.61194   -4.86342
       H    11.29759   -3.79873   -3.78055
       O    11.55589   -4.58534   -4.32922
      H1    10.80632   -5.23848   -4.26400
       H    17.12016   -6.22814   -7.38220
       O    16.29164   -5.80786   -7.13145
      H1    15.68277   -5.98823   -7.85753
       H    11.52841   -7.93992   -4.24861
       O    10.90151   -7.73193   -3.56118
      H1    10.24734   -7.26532   -4.05549

