60
frame 0 | Written by MDAnalysis XYZWriter (release 2.4.3)
       H    -7.03818   -5.10541   15.74014
       O    -6.85096   -5.41800   14.85723
      H1    -6.05258   -4.92185   14.62208
       H    -4.72365   -6.75966   11.56401
       O    -5.38714   -6.35815   12.16122
      H1    -6.24634   -6.39901   11.72028
       H    -7.45100  -10.98956   12.67780
       O    -8.03476  -11.53802   12.15604
      H1    -7.71712  -12.43368   12.31183
       H   -11.57693   -9.67114   16.41616
       O   -12.09472   -8.88359   16.25034
      H1   -11.61982   -8.20751   16.72831
       H    -4.59188   -7.38967   14.71072
       O    -5.37432   -7.80960   15.10852
      H1    -6.00805   -7.08340   15.10193
       H   -10.39117  -11.96441   15.73617
       O    -9.59953  -12.00800   15.18519
      H1    -9.14277  -11.17641   15.39582
       H    -9.77299   -6.96676   13.70568
       O    -9.23714   -6.96811   14.49992
      H1    -8.46808   -6.47117   14.24348
       H    -9.74742   -6.61870   17.62271
       O   -10.43449   -6.55342   16.95294
      H1   -10.00509   -6.79266   16.08878
       H    -7.68048   -5.24642    9.69533
       O    -8.25680   -5.39191   10.44905
      H1    -8.33204   -4.53841   10.91388
       H   -11.09964   -5.96090   11.01559
       O   -10.94331   -5.71760   10.07815
      H1   -10.01742   -5.92761    9.93211
       H    -8.92963   -2.32360   15.20884
       O    -9.30779   -2.36037   16.08532
      H1    -9.86268   -3.18783   16.09010
       H   -12.40965   -4.05790   14.47718
       O   -12.39598   -4.06081   13.50344
      H1   -13.35420   -4.10059   13.28687
       H   -11.92080   -7.08080   13.18235
       O   -11.34588   -6.43457   12.74986
      H1   -11.73608   -5.58799   12.95109
       H    -4.61795   -4.85786   12.82552
       O    -4.79642   -4.06490   13.36783
      H1    -4.31374   -4.19603   14.20724
       H   -12.22207   -3.90452   16.63756
       O   -11.39757   -4.14825   16.20377
      H1   -11.30841   -5.07860   16.51348
       H    -7.70672   -4.39889   17.99630
       O    -7.47388   -3.89191   17.23263
      H1    -8.24071   -3.30172   17.14124
       H    -6.13111   -8.87305   13.76123
       O    -6.76899   -9.28263   13.16307
      H1    -7.22393   -8.56687   12.72419
       H    -7.88852   -9.47373   15.05983
       O    -8.58832   -9.68092   15.69549
      H1    -9.29808   -9.09138   15.40495
       H    -8.24886   -7.20365   10.72689
       O    -8.22118   -8.03233   11.19308
      H1    -8.45571   -8.71926   10.58035
       H   -13.84124   -7.05890   14.41435
       O   -13.25162   -7.76852   14.11732
      H1   -12.81745   -8.05100   14.92358

