60
frame 0 | Written by MDAnalysis XYZWriter (release 2.4.3)
       H    -7.40376   12.03137    8.74594
       O    -7.77897   11.47600    9.44033
      H1    -8.12953   10.74407    8.92634
       H   -10.39661    6.36597    8.84989
       O    -9.64598    6.52256    8.23227
      H1   -10.06367    6.66709    7.36877
       H   -13.31247   12.54566    7.58387
       O   -12.31891   12.43564    7.61272
      H1   -12.13503   11.58430    7.15979
       H    -7.26721    9.51946    3.12771
       O    -6.52274    9.38042    2.58810
      H1    -6.89138    8.93205    1.84569
       H   -11.70433    7.10945    6.20323
       O   -10.88385    7.09374    5.69766
      H1   -11.26017    7.23223    4.79048
       H   -10.04138   13.07502    4.36491
       O   -10.21779   13.93176    4.80196
      H1    -9.62054   13.87884    5.55487
       H    -8.77557    7.51065    2.96441
       O    -8.60467    7.13305    3.81736
      H1    -7.77715    6.68246    3.77678
       H    -6.73396   11.82913    5.69946
       O    -7.43475   11.52578    6.28087
      H1    -7.53595   10.63032    5.99520
       H    -6.82850    8.62859    5.90251
       O    -7.61598    8.98785    5.51026
      H1    -7.85443    8.26977    4.89737
       H    -9.55223    9.21565    7.56613
       O    -9.04701    9.05466    8.36168
      H1    -9.01612    8.08516    8.36224
       H   -11.03518    9.42106    5.90655
       O   -10.13604    9.81583    5.99997
      H1    -9.53383    9.16757    5.67591
       H   -12.52777    7.88378    3.24436
       O   -11.66384    7.46184    3.00916
      H1   -11.93099    6.70535    2.49142
       H    -8.16643    5.75583    7.40971
       O    -7.54043    5.69452    6.67618
      H1    -7.55379    6.59833    6.27748
       H   -10.14025   10.94119    3.17065
       O    -9.84570   11.54634    3.88363
      H1    -9.66474   10.95780    4.63807
       H    -9.66349    9.44714    1.45524
       O    -9.67583    9.16697    2.36224
      H1   -10.54444    8.67404    2.41010
       H   -11.58754   11.86697    4.34091
       O   -12.55645   11.81226    4.33367
      H1   -12.85628   12.65127    4.69513
       H    -4.80720    7.77076    6.83728
       O    -5.53399    8.30055    7.17922
      H1    -5.04428    8.98710    7.62578
       H   -13.17970    9.50187    7.72775
       O   -12.77872    9.82738    6.89218
      H1   -13.50877    9.88899    6.25265
       H    -9.46480    5.52854    4.33041
       O    -9.38600    4.55657    4.45855
      H1    -8.58770    4.50849    5.05700
       H   -14.42382    9.21391    3.35824
       O   -13.71202    9.20651    4.00598
      H1   -13.39739   10.14683    3.94865

