60
frame 10 | Written by MDAnalysis XYZWriter (release 2.4.3)
       H    13.29943   17.79929   16.76302
       O    13.65894   17.59787   15.86860
      H1    13.91186   16.65976   15.87159
       H    16.73907   18.41878   13.65498
       O    17.24812   17.72020   14.13093
      H1    18.10888   17.67953   13.63251
       H    12.70352   14.53270   18.04967
       O    12.79630   14.40864   19.00804
      H1    13.22964   13.54656   19.18414
       H    17.82678   10.93906   13.19734
       O    17.67139   10.74653   14.12107
      H1    18.28422   11.32465   14.56978
       H    18.15074   19.40858   15.87119
       O    18.88192   19.34818   16.51181
      H1    19.16969   18.38284   16.51038
       H    11.37280   14.41297   15.69403
       O    11.47445   13.83194   16.48557
      H1    12.27683   13.33306   16.27662
       H    14.55990   15.88035   19.29278
       O    15.41156   16.29824   19.23234
      H1    15.37208   17.11328   19.78059
       H    15.75848   17.87220   16.64300
       O    16.36362   17.67730   17.33075
      H1    15.84848   17.16745   18.00635
       H    19.77901   13.89871   14.16751
       O    19.19372   13.30896   14.63211
      H1    18.90305   13.91627   15.36902
       H    14.02617   11.59176   15.75648
       O    13.17388   11.44832   15.36079
      H1    13.07864   10.51757   15.08137
       H    18.39143   15.82442   15.97710
       O    17.53172   15.46514   16.20054
      H1    17.29561   16.22432   16.80517
       H    15.38869   14.73450   12.93373
       O    14.50935   14.89598   13.30289
      H1    13.99382   14.10918   13.07401
       H    17.17524   12.82066   18.67261
       O    16.58010   12.10144   18.36886
      H1    16.23635   12.21232   17.48805
       H    18.13105   14.23315   17.34155
       O    18.88799   13.76089   17.80287
      H1    19.46136   14.45886   18.02587
       H    14.67028   14.80005   14.99555
       O    14.61696   14.87406   15.98455
      H1    15.54470   15.08036   16.19715
       H    18.72396    7.28395   15.58411
       O    19.29110    7.77035   16.23910
      H1    18.68009    8.35958   16.70132
       H    16.30561   11.48922   15.19997
       O    15.75231   12.15119   15.67128
      H1    15.60227   12.83321   15.00635
       H    17.41654   15.56569   13.48870
       O    17.33963   14.76110   12.95245
      H1    17.90059   14.05633   13.36793
       H    17.39189   10.43539   18.20471
       O    17.76758    9.52742   18.17924
      H1    17.01030    8.95461   18.31040
       H    14.33355   10.05291   18.97673
       O    14.26148    9.14383   18.63182
      H1    13.98222    8.57823   19.33390

