60
frame 0 | Written by MDAnalysis XYZWriter (release 2.4.3)
       H    11.28222   10.32174   -3.24551
       O    12.09499   10.10045   -2.79028
      H1    12.70637    9.98054   -3.51201
       H    13.23216    7.41366   -0.20901
       O    12.96375    7.28147    0.70891
      H1    13.00879    8.22471    1.01937
       H    12.72141   10.42029   -1.00978
       O    12.61425   10.19956   -0.08579
      H1    11.70304   10.29498    0.14429
       H     9.27606   12.54088   -2.04150
       O     8.30606   12.62801   -2.17280
      H1     8.09607   13.45309   -1.72861
       H    16.51332    8.92156   -5.52404
       O    16.95422    9.79559   -5.60230
      H1    17.55285    9.65061   -6.35928
       H    11.11155    9.36515   -7.75260
       O    11.03944    9.77816   -6.88673
      H1    10.13648    9.57412   -6.56205
       H    12.56827   13.42704   -4.67677
       O    12.14277   13.94596   -3.97818
      H1    12.76517   14.62728   -3.81636
       H    16.01977   10.95072   -2.33338
       O    15.18668   11.25360   -1.94540
      H1    15.44744   11.70723   -1.14979
       H    11.58686    6.83962   -5.61152
       O    12.45578    7.16587   -5.45420
      H1    12.64596    6.94011   -4.53385
       H    15.60861    9.02238   -2.10863
       O    15.77051    8.13817   -2.47243
      H1    16.12024    7.62216   -1.72354
       H     9.20397    6.92858   -1.67755
       O    10.00407    6.40127   -1.60920
      H1    10.63861    6.98354   -2.02097
       H    11.77758   11.34672   -6.27601
       O    12.39756   11.95161   -5.85182
      H1    13.01471   12.12335   -6.59097
       H    11.18395   13.63911   -2.20004
       O    10.93689   12.83995   -1.67115
      H1    11.59098   12.19388   -1.96296
       H    13.87392    8.94213   -6.85661
       O    13.77242    8.80572   -7.83022
      H1    14.00666    7.86669   -7.90805
       H    15.34531   11.09683   -4.76671
       O    15.13149   12.02985   -4.90565
      H1    15.01420   12.38028   -3.98629
       H    16.20704    7.81803   -4.02339
       O    16.23385    7.35255   -4.89247
      H1    15.53787    6.68100   -4.82803
       H    13.60977   10.44044   -5.41173
       O    13.87076    9.54885   -5.17970
      H1    13.07871    9.03726   -5.37617
       H    10.49538   12.41892   -5.69148
       O     9.83853   13.13910   -5.68645
      H1     9.39725   13.08193   -6.53214
       H    13.60692    7.68590   -2.82887
       O    12.82603    7.10367   -2.73803
      H1    13.17347    6.32094   -2.31186
       H     9.12746   11.26756   -4.17923
       O     9.80868   10.59144   -4.24284
      H1     9.28909    9.75813   -4.20269

