60
frame 10 | Written by MDAnalysis XYZWriter (release 2.4.3)
       H    -7.77163   -7.93658    8.72701
       O    -8.67630   -8.12894    8.41918
      H1    -8.87369   -9.08148    8.67620
       H    -3.06655   -3.18739   11.93523
       O    -3.50828   -2.47742   12.37514
      H1    -2.84299   -1.83057   12.70601
       H    -3.60962   -5.85564   12.20990
       O    -3.33700   -5.28283   11.45225
      H1    -4.13223   -5.08256   10.95829
       H    -7.41531   -4.56377   11.24566
       O    -7.03527   -4.85165   12.08279
      H1    -6.44615   -4.21023   12.56040
       H    -7.66852   -3.16156    8.69473
       O    -7.35671   -3.49673    9.51313
      H1    -6.76242   -4.19128    9.15988
       H    -7.15834   -7.29124   15.06112
       O    -6.83237   -6.38203   15.05358
      H1    -7.62664   -5.90333   14.68883
       H    -5.79228   -8.15707   10.29869
       O    -6.11405   -7.79863    9.46758
      H1    -5.72100   -8.46503    8.84154
       H   -11.09074   -6.63135   10.01234
       O   -11.24111   -7.18058   10.78423
      H1   -11.21003   -6.64854   11.59444
       H    -5.12564   -2.82746   13.31497
       O    -5.78862   -3.36090   13.79177
      H1    -6.48852   -2.79193   14.06261
       H    -5.14482   -3.06167    9.58545
       O    -4.45778   -2.41051    9.56619
      H1    -4.97424   -1.61699    9.89486
       H    -8.32202   -5.17552   13.12036
       O    -8.99640   -5.48889   13.65665
      H1    -9.70135   -4.81557   13.80120
       H   -12.14647   -4.57336   12.86470
       O   -11.77753   -3.67679   13.06383
      H1   -11.09160   -3.37908   12.46678
       H    -5.12667   -5.38814    8.41394
       O    -5.34917   -5.19969    9.35956
      H1    -5.71396   -6.06403    9.68420
       H    -4.80833   -9.60936   11.80363
       O    -4.54809   -8.68712   11.51168
      H1    -4.74561   -8.12616   12.31667
       H    -9.20760   -7.35957   13.85685
       O    -9.16051   -8.30849   14.09757
      H1    -8.76781   -8.83901   13.36992
       H    -8.52237   -5.35596   17.26997
       O    -7.94017   -6.05949   17.54886
      H1    -7.33398   -5.96268   16.83502
       H    -8.72305   -1.46140   13.71235
       O    -8.17688   -1.62191   14.55045
      H1    -8.76961   -2.18073   14.99513
       H    -5.54290   -3.18555   15.81972
       O    -5.77075   -3.16516   16.74248
      H1    -5.81524   -2.25659   17.03987
       H    -8.36145   -2.31979   11.60205
       O    -9.28863   -2.13026   11.93700
      H1    -9.81050   -1.92165   11.13147
       H    -5.28512   -6.54609   13.75416
       O    -4.35212   -6.76943   13.64889
      H1    -3.97823   -7.12629   14.53650

