60
frame 0 | Written by MDAnalysis XYZWriter (release 2.4.3)
       H   -16.47782   -3.92673  -15.72708
       O   -17.11157   -4.48332  -16.20013
      H1   -17.97696   -4.23386  -15.82362
       H   -10.19382   -9.62099  -14.87216
       O   -11.11950   -9.39453  -14.83645
      H1   -11.18780   -8.61424  -15.37933
       H   -13.79891   -9.47968  -13.18182
       O   -13.25610   -9.88517  -12.46196
      H1   -13.14255   -9.14056  -11.85420
       H    -8.86302   -6.10936  -18.14909
       O    -8.44209   -6.14867  -19.04443
      H1    -8.03229   -7.01240  -18.99130
       H   -12.20973   -1.39482  -18.72963
       O   -13.07641   -1.67385  -19.02012
      H1   -13.32003   -2.39934  -18.45162
       H   -11.06453  -10.65883  -17.03563
       O   -10.20106  -10.42002  -17.42727
      H1   -10.20103  -10.71461  -18.33936
       H   -11.50722   -4.03584  -14.58797
       O   -11.99023   -3.58841  -15.29419
      H1   -11.76173   -2.63953  -15.28348
       H   -14.18836   -7.05359  -17.58680
       O   -13.59983   -7.18439  -18.30324
      H1   -12.73858   -7.37457  -17.86147
       H   -10.73285   -8.64210  -17.31443
       O   -11.24980   -7.84125  -17.13291
      H1   -10.54716   -7.15642  -17.01168
       H   -16.25888   -6.15136  -16.15311
       O   -15.79660   -6.98531  -16.19160
      H1   -16.50199   -7.65221  -16.43249
       H   -14.13540   -6.92416  -13.80793
       O   -13.85742   -7.69871  -14.30879
      H1   -14.51308   -7.73649  -15.02923
       H   -10.81616   -7.85176  -11.81804
       O   -10.28475   -8.33443  -12.48962
      H1   -10.96318   -8.82531  -13.01925
       H   -15.01331   -2.20555  -15.54470
       O   -14.44210   -2.58487  -14.84961
      H1   -13.60132   -2.81512  -15.29309
       H   -16.42568  -11.26609  -14.63031
       O   -16.01049  -12.00575  -15.12991
      H1   -15.54575  -11.63990  -15.90558
       H   -17.86132   -8.97324  -15.72892
       O   -17.76149   -8.85539  -16.68022
      H1   -17.06495   -9.45578  -16.91345
       H   -13.14126   -5.29118  -18.24768
       O   -12.84656   -4.45221  -17.80167
      H1   -12.35580   -4.78339  -17.00435
       H   -10.55818   -4.68995  -12.39426
       O   -10.36474   -4.69880  -13.35644
      H1   -10.36524   -5.66282  -13.54196
       H   -10.42156   -4.88325  -17.32060
       O    -9.86556   -5.50353  -16.85820
      H1    -9.17275   -4.98248  -16.39771
       H   -12.51111  -10.65783  -15.76843
       O   -12.86878  -10.89966  -16.62912
      H1   -13.12308  -11.81634  -16.55144
       H   -14.58727  -10.10665  -16.70811
       O   -15.34488  -10.09824  -17.30904
      H1   -15.32175  -10.96326  -17.68359

