60
frame 0 | Written by MDAnalysis XYZWriter (release 2.4.3)
       H   -13.27965   11.76824   -4.31044
       O   -14.18127   12.09034   -4.27190
      H1   -14.41813   11.88887   -3.35180
       H   -18.18706   12.89004   -3.90230
       O   -18.79314   13.19975   -3.20630
      H1   -19.30938   13.90382   -3.57212
       H   -12.64907   16.58801   -2.35134
       O   -12.75819   16.77286   -1.41546
      H1   -12.90905   15.91258   -0.97328
       H   -10.60015   12.90528   -1.95997
       O   -11.50328   13.25411   -1.89226
      H1   -12.07361   12.55301   -2.20143
       H   -16.24155   11.66669   -4.50266
       O   -17.18603   11.71788   -4.57356
      H1   -17.37337   11.90925   -5.51084
       H   -16.34455    9.36143   -0.71632
       O   -15.96116   10.18715   -0.37773
      H1   -15.43303   10.54187   -1.11434
       H   -13.62682   18.85408    0.72196
       O   -14.33086   18.36514    0.27060
      H1   -13.89474   17.69531   -0.27695
       H   -14.55739   14.45161    3.19266
       O   -15.00040   14.18103    2.38146
      H1   -15.47476   13.39396    2.68342
       H   -13.72218   11.93832   -0.64955
       O   -14.34870   12.03181   -1.39622
      H1   -14.52293   12.98556   -1.40245
       H   -15.06475   14.51791   -0.53602
       O   -14.22854   14.73612   -0.10169
      H1   -14.32969   14.51501    0.81016
       H   -17.52589    8.27948   -4.40204
       O   -16.97722    9.06262   -4.13854
      H1   -17.39732    9.86486   -4.47994
       H   -16.74982   18.06343   -2.67310
       O   -17.12309   18.51175   -3.44360
      H1   -16.37200   18.73911   -3.97114
       H   -17.03719   15.41993   -5.95501
       O   -16.29330   14.81602   -6.20216
      H1   -15.67534   14.86304   -5.44315
       H   -16.79639   13.92802   -1.59827
       O   -16.23989   14.67811   -1.86215
      H1   -16.54269   15.38136   -1.27768
       H   -18.13961   12.35907   -1.63309
       O   -17.62965   12.58513   -0.84497
      H1   -17.04703   11.80338   -0.76409
       H   -18.64155   17.16130   -5.94742
       O   -18.32600   16.55606   -5.27561
      H1   -17.78325   17.12095   -4.70266
       H   -15.31157   17.46079    1.46284
       O   -16.02837   16.96192    1.91093
      H1   -15.79814   16.04168    1.70678
       H   -15.26586   14.67432   -3.39322
       O   -14.62074   14.67770   -4.09866
      H1   -14.50383   13.73030   -4.36357
       H   -18.07027   16.87139   -0.41857
       O   -17.13290   16.92725   -0.63558
      H1   -16.69008   17.13490    0.20714
       H   -16.85536    9.18527    3.09633
       O   -16.14156    9.64135    2.64863
      H1   -16.42735    9.86914    1.76072

