60
frame 0 | Written by MDAnalysis XYZWriter (release 2.4.3)
       H    -9.77854   -5.25899    0.09564
       O    -9.39195   -4.56820    0.59974
      H1    -9.78029   -3.77630    0.21084
       H   -12.81849   -4.47452   -1.62816
       O   -12.76417   -3.50668   -1.60828
      H1   -12.41969   -3.27494   -0.73484
       H   -14.86663   -5.65498   -0.43137
       O   -15.60423   -5.51277    0.19128
      H1   -15.34686   -6.11305    0.92224
       H   -17.31553   -8.80760    0.11459
       O   -16.60596   -9.01560    0.76832
      H1   -16.47363   -9.94628    0.52195
       H    -9.43762  -10.00529    2.42910
       O    -9.57818  -10.78792    2.95279
      H1    -8.69465  -11.16088    3.01981
       H   -12.05643  -11.63784    1.39969
       O   -12.80637  -11.05593    1.19679
      H1   -13.50251  -11.34729    1.79617
       H   -15.09605   -8.16299    1.25737
       O   -14.69441   -7.49060    1.80110
      H1   -14.98863   -7.70272    2.69412
       H    -9.76417   -9.65184   -2.36712
       O    -9.62974   -9.72069   -1.39373
      H1    -9.39673  -10.65513   -1.30389
       H   -12.87533   -7.90417    1.96100
       O   -12.02203   -8.30518    1.82312
      H1   -12.26645   -9.23762    1.62052
       H    -9.47743   -7.17349   -1.13536
       O   -10.24719   -6.63825   -1.33450
      H1   -11.03353   -7.21358   -1.27501
       H   -13.03615  -12.65165    0.19622
       O   -13.04042  -13.34197   -0.47119
      H1   -13.86429  -13.18752   -0.94998
       H   -13.08285  -11.46433   -2.70452
       O   -13.67340  -10.83410   -2.28531
      H1   -13.07962  -10.05402   -2.18130
       H   -11.45666   -9.08548   -4.56012
       O   -10.84583   -9.56022   -3.98478
      H1   -11.01363  -10.50268   -4.20572
       H   -11.21221   -8.83134    3.52800
       O   -10.92752   -8.75458    4.44124
      H1   -10.14546   -8.21026    4.36409
       H    -9.92315   -6.05254   -4.44594
       O    -9.79398   -5.44155   -3.68683
      H1   -10.09929   -5.99928   -2.92898
       H   -13.43264   -5.87717   -2.85845
       O   -13.49641   -6.12005   -1.89423
      H1   -12.93438   -6.89282   -1.85968
       H   -11.34172   -8.82710   -1.05928
       O   -12.20524   -8.42838   -1.00356
      H1   -12.39153   -8.37221   -0.04842
       H    -8.59319   -8.52413    0.89649
       O    -9.12433   -8.39421    1.65885
      H1    -9.87055   -7.80788    1.45026
       H   -16.29083  -11.64961   -0.59669
       O   -15.48496  -11.44364   -0.04595
      H1   -14.86704  -11.02755   -0.66569
       H   -14.30666  -11.13539    4.37088
       O   -13.85357  -10.55530    3.74858
      H1   -12.95653  -10.50865    4.10947

