60
frame 0 | Written by MDAnalysis XYZWriter (release 2.4.3)
       H   -12.90379   -6.09563   -5.19570
       O   -13.33643   -5.49002   -4.54617
      H1   -12.65512   -4.78980   -4.49688
       H   -12.43547   -7.92210   -6.43467
       O   -12.39060   -7.84131   -5.49682
      H1   -13.25709   -8.13600   -5.21576
       H   -14.86663   -5.65498   -0.43137
       O   -15.60423   -5.51277    0.19128
      H1   -15.34686   -6.11305    0.92224
       H   -17.31553   -8.80760    0.11459
       O   -16.60596   -9.01560    0.76832
      H1   -16.47363   -9.94628    0.52195
       H   -19.19020   -3.15917   -7.62239
       O   -18.39798   -3.73100   -7.73868
      H1   -18.10543   -3.65659   -8.65294
       H   -17.33903   -9.24818   -7.96406
       O   -17.65467   -9.38706   -7.07086
      H1   -17.46841   -8.51417   -6.68029
       H   -15.15411   -7.98289   -6.44429
       O   -15.07955   -8.29804   -5.53543
      H1   -15.38968   -9.18733   -5.56755
       H   -18.83622  -10.51189   -1.85192
       O   -18.26886   -9.76559   -1.58263
      H1   -17.73688   -9.55134   -2.37951
       H   -14.66160   -3.69791   -7.38404
       O   -14.12629   -3.84340   -8.19307
      H1   -14.08450   -2.97329   -8.61127
       H   -16.18365   -6.05526   -8.91135
       O   -15.56746   -5.82478   -9.59550
      H1   -15.01716   -5.20000   -9.12419
       H   -17.56310   -6.48391   -4.37871
       O   -18.27949   -6.76284   -3.78974
      H1   -17.90762   -6.61059   -2.90403
       H   -17.95463   -6.10713   -8.01575
       O   -17.16958   -6.57994   -7.65873
      H1   -16.96345   -6.10133   -6.81734
       H   -16.98005   -6.08480   -0.65490
       O   -17.71108   -6.60130   -1.09100
      H1   -18.36914   -5.91863   -1.23596
       H   -19.27674   -4.09527   -0.29608
       O   -18.48711   -3.94903   -0.85155
      H1   -17.81376   -3.88159   -0.17532
       H   -13.43264   -5.87717   -2.85845
       O   -13.49641   -6.12005   -1.89423
      H1   -12.93438   -6.89282   -1.85968
       H   -15.19609   -1.44032   -3.09343
       O   -14.81628   -2.23421   -3.46671
      H1   -14.35864   -2.62885   -2.71547
       H   -16.90913   -3.10282   -6.85129
       O   -16.11876   -3.15799   -6.28042
      H1   -16.44753   -2.90120   -5.41610
       H   -16.17372   -4.77641   -5.33976
       O   -16.35550   -5.71997   -5.25076
      H1   -15.53564   -6.11399   -4.96959
       H   -17.90755   -9.65845   -5.25494
       O   -17.77835   -9.30327   -4.35670
      H1   -18.26927   -8.45468   -4.34874
       H   -17.32572   -0.57136   -4.89320
       O   -17.72565   -1.41160   -4.69501
      H1   -17.51677   -1.64400   -3.75737

