63
frame 1 | Written by MDAnalysis XYZWriter (release 2.4.3)
       H    -9.84189  -16.33870    7.74117
       O    -9.87810  -16.93042    6.91964
      H1    -9.21447  -17.56955    7.00406
       H   -14.91653  -19.71437   11.55151
       O   -14.86678  -18.91327   12.10021
      H1   -13.89014  -18.83496   12.19843
       H   -18.43374  -15.75716    5.04800
       O   -19.20139  -15.13972    5.23325
      H1   -19.91971  -15.68380    4.96094
       H    -9.23813  -19.35766    6.95777
       O    -8.29036  -19.17594    6.82138
      H1    -7.87770  -19.86476    6.19011
       H   -11.72535  -14.66143    8.18848
       O   -11.15873  -15.04323    8.90047
      H1   -11.50788  -15.89852    9.05498
       H   -15.17054  -15.17831    0.15847
       O   -14.68370  -15.36782    1.00203
      H1   -15.26484  -15.82796    1.59672
       H   -16.55226  -17.16216    3.08828
       O   -16.06532  -17.26451    2.21591
      H1   -16.15898  -18.19715    2.07554
       H   -15.42969  -13.15623    8.64733
       O   -16.22505  -13.38803    8.17560
      H1   -16.20679  -14.31435    7.93612
       H   -12.11829  -18.20927   11.62961
       O   -12.09314  -18.86759   12.33585
      H1   -11.77309  -18.41967   13.08752
       H   -12.31858  -16.84749    2.75263
       O   -11.51845  -16.67966    2.19254
      H1   -11.70938  -15.93340    1.66269
       H   -13.60737  -17.44440    6.75175
       O   -14.41856  -17.88849    7.10815
      H1   -14.27847  -18.78308    6.71259
       H   -18.36906  -19.95249    4.33239
       O   -19.00845  -19.22543    4.52651
      H1   -19.30870  -19.01490    3.62309
       H   -18.88975  -17.63447    7.94547
       O   -19.08515  -16.69789    8.08834
      H1   -19.64594  -16.45477    7.36177
       H   -10.22742  -20.08054    9.61574
       O   -10.49765  -19.16564    9.53183
      H1    -9.87477  -18.54299    9.85707
       H   -15.86837  -16.51967    7.71074
       O   -16.53719  -16.04774    7.19548
      H1   -17.40014  -16.11804    7.66962
       H   -17.75130  -17.80054    5.02624
       O   -17.31386  -16.98385    4.86826
      H1   -16.90229  -16.65878    5.71746
       H   -13.02484  -12.86801    7.09060
       O   -12.78922  -13.77992    6.80794
      H1   -13.48974  -14.17973    6.28563
       H   -15.16532  -14.08489    4.71052
       O   -14.61609  -14.79684    5.12683
      H1   -15.16506  -15.11777    5.83858
       H   -12.02863  -18.16543    9.65107
       O   -12.50799  -17.35718    9.87024
      H1   -13.42481  -17.37399    9.60361
       H   -14.29721  -17.38073    3.31379
       O   -13.55046  -17.37356    3.93776
      H1   -13.60692  -16.45564    4.29371
       H   -16.74418  -16.43633   10.46574
       O   -15.83635  -16.67260   10.41035
      H1   -15.61375  -17.42151   11.02106

