63
frame 1 | Written by MDAnalysis XYZWriter (release 2.4.3)
       H    15.65364    5.20430   18.00720
       O    15.40110    4.81617   17.19349
      H1    14.86725    5.44517   16.76629
       H    17.17927    5.33062   11.48151
       O    16.43034    5.94057   11.73759
      H1    15.78859    5.21944   12.04148
       H    18.70474    4.02865    9.91123
       O    18.45253    4.38423   10.76359
      H1    18.88695    3.62232   11.24096
       H    18.63507   10.84875   11.84523
       O    18.94421   10.68208   12.81854
      H1    19.18166    9.72537   12.84966
       H    11.89355    9.41780   13.46118
       O    11.91938    9.74573   12.56162
      H1    12.05810    8.89648   12.09204
       H    15.05728    9.47303    8.89911
       O    15.11556    8.91959    9.67534
      H1    14.26227    8.41312    9.52843
       H    16.17366    2.61420   12.92134
       O    15.95438    3.24925   13.56698
      H1    15.55065    2.68066   14.25181
       H    12.86300    6.71561   14.53034
       O    12.19401    6.67747   13.79561
      H1    11.34815    6.75389   14.25636
       H    14.68205    9.62748   11.46869
       O    14.47331   10.13094   12.23984
      H1    13.51737   10.00233   12.37712
       H    19.22848    7.86275   18.12674
       O    18.27327    7.61942   18.06648
      H1    17.82717    8.16011   17.41777
       H    17.27085   10.57291   13.69088
       O    16.37036   10.66921   14.08584
      H1    15.71518   10.25200   13.50348
       H    11.78066    6.71711   11.80764
       O    11.53519    7.09641   10.94322
      H1    10.66556    6.75794   10.73232
       H    18.65127    7.75610   14.17947
       O    19.37242    7.96096   13.53939
      H1    20.06289    7.36259   13.85636
       H    17.28017   10.24576   17.05312
       O    16.62573    9.60602   16.69662
      H1    16.60556    9.79259   15.77216
       H    13.03701    5.21591   13.16901
       O    13.50539    4.64934   12.57844
      H1    13.91427    4.01591   13.18058
       H    18.36017    9.30169    9.97399
       O    17.62739    9.89510   10.18465
      H1    16.84016    9.33484    9.97586
       H    18.65134    4.74661   16.40303
       O    19.31554    5.43368   16.70667
      H1    18.85814    6.16389   17.20188
       H    16.12659    8.36099   13.84352
       O    16.32752    7.43561   14.06564
      H1    16.50486    7.01270   13.20360
       H    17.40497    3.70559   14.79530
       O    17.68285    3.55640   15.69726
      H1    16.82374    3.70466   16.14973
       H    14.45960    5.67402    9.30845
       O    15.41798    5.92059    9.33493
      H1    15.71830    5.98030   10.27276
       H    14.84223    7.10018   15.17744
       O    14.06990    6.81944   15.62613
      H1    13.72386    7.42629   16.25155

