63
frame 1 | Written by MDAnalysis XYZWriter (release 2.4.3)
       H    17.61649  -11.89281  -16.79059
       O    18.58355  -12.04229  -16.59976
      H1    18.64289  -11.26560  -16.03101
       H    16.64197   -2.22401  -15.18197
       O    16.78397   -1.89049  -14.28430
      H1    17.52575   -1.24298  -14.21932
       H    16.50119   -7.74753  -18.20588
       O    17.27081   -7.64656  -18.77388
      H1    17.99563   -7.26546  -18.12375
       H    16.78651   -3.13183  -12.93825
       O    16.82756   -3.83027  -12.27964
      H1    16.07491   -4.41689  -12.45125
       H    13.93381   -5.39810  -12.66076
       O    14.29062   -5.08429  -13.43177
      H1    13.50842   -4.78390  -14.02615
       H    18.77010  -13.18744  -15.27579
       O    18.95412  -13.80547  -14.53487
      H1    19.78881  -13.48443  -14.14093
       H    16.77475   -1.92502  -17.09302
       O    15.88255   -2.19142  -16.86435
      H1    15.97157   -3.17937  -16.73132
       H    13.55224   -4.93942  -18.94765
       O    14.25144   -5.62505  -18.97967
      H1    15.04329   -5.03012  -18.83692
       H    12.48060   -8.21192  -16.92083
       O    13.11083   -8.90811  -17.22461
      H1    13.34598   -8.58890  -18.12136
       H    15.14313  -11.24158  -17.77442
       O    16.12865  -11.37256  -17.68776
      H1    16.61548  -10.99848  -18.41854
       H    18.72009   -9.25652  -14.57733
       O    19.04618   -9.54571  -15.46288
      H1    18.84389   -8.78800  -16.06074
       H    19.25371   -3.58907  -19.13101
       O    19.30563   -4.03989  -18.22943
      H1    19.96851   -3.44833  -17.77932
       H    20.14157   -4.23986  -11.14319
       O    19.53115   -4.81604  -11.61762
      H1    18.77485   -4.26554  -11.76165
       H    17.78295   -9.43661  -19.31142
       O    17.81528  -10.38675  -19.59248
      H1    18.70085  -10.70230  -19.38459
       H    15.50251   -8.34989  -15.19156
       O    15.35608   -9.00048  -14.43508
      H1    15.02216   -9.80617  -14.87582
       H    18.24791   -6.36488   -8.95428
       O    18.33310   -6.72887   -9.83529
      H1    18.74783   -6.13198  -10.47869
       H    19.32034  -10.01305  -12.97252
       O    18.81751   -9.25296  -12.75207
      H1    17.89816   -9.62024  -12.63802
       H    14.60313   -7.98387  -16.90153
       O    15.38538   -7.53869  -16.73246
      H1    15.16598   -6.59965  -16.88197
       H    17.32050   -4.77294  -16.59810
       O    16.36555   -4.90540  -16.38165
      H1    16.33661   -5.09667  -15.44333
       H    16.48972  -11.18690  -12.10605
       O    16.25613  -10.23895  -12.04708
      H1    15.75704  -10.07161  -12.83504
       H    19.82836   -6.18296  -16.76280
       O    19.35475   -7.01901  -17.00098
      H1    20.01978   -7.42082  -17.59231

