63
frame 2 | Written by MDAnalysis XYZWriter (release 2.4.3)
       H    18.96625  -11.76897   13.49394
       O    19.40763  -12.48386   13.04572
      H1    19.40766  -13.29771   13.63469
       H    18.97833  -14.37968   16.87912
       O    18.41841  -15.10307   16.48045
      H1    18.73404  -15.90056   16.96125
       H    12.56870  -18.51076   11.00072
       O    13.04103  -19.25019   11.38538
      H1    12.90501  -19.94479   10.70108
       H    14.54830  -17.11311   14.07776
       O    14.34718  -17.48030   14.95603
      H1    13.73493  -16.83913   15.34666
       H    19.32140  -17.98047   17.07484
       O    19.49247  -17.43105   17.87799
      H1    19.18555  -17.98231   18.61615
       H    16.64950  -16.51818   12.54090
       O    17.06738  -16.82587   11.70903
      H1    17.98208  -17.03405   11.93803
       H    10.69409  -16.35684   13.89007
       O    10.86483  -17.21522   13.45179
      H1    10.93315  -17.92716   14.15926
       H    17.47555  -18.17404   16.39670
       O    18.03564  -18.93655   16.24266
      H1    17.40728  -19.64237   16.01284
       H    15.56817  -13.10156   17.20425
       O    15.31693  -12.36911   16.68631
      H1    15.28214  -11.67504   17.31848
       H    19.80260  -15.72267   13.48707
       O    19.88968  -14.98612   14.12326
      H1    19.31314  -15.12831   14.87924
       H    14.43164  -14.03240   14.51624
       O    13.68495  -13.68642   14.09378
      H1    14.11148  -13.10083   13.42449
       H    17.32528  -18.27744    8.20161
       O    18.00640  -18.72670    8.74985
      H1    17.51898  -19.13931    9.49035
       H    11.92057  -16.17443   17.21469
       O    12.44978  -15.79394   16.45253
      H1    11.95490  -15.02403   16.23783
       H    14.64889  -15.03962   11.08883
       O    15.26541  -14.38961   10.76360
      H1    16.05566  -14.95432   10.45858
       H    11.83757  -16.26136   19.12066
       O    11.53132  -17.06419   18.55655
      H1    12.24664  -17.71361   18.71431
       H    16.09610  -14.28429   19.02357
       O    15.67757  -14.62387   18.20991
      H1    14.72814  -14.68076   18.40285
       H    11.30710  -19.48568   16.63369
       O    10.90285  -18.72329   16.15105
      H1    10.54896  -18.13983   16.82739
       H    12.86297  -16.61199   12.98744
       O    13.64132  -16.06643   12.72525
      H1    13.45498  -15.19927   13.13706
       H    17.92766  -14.76683    9.65137
       O    17.64211  -15.65265    9.46847
      H1    17.44335  -16.03748   10.37641
       H    16.89918  -13.90111   14.81221
       O    16.16435  -14.57192   14.86837
      H1    16.37076  -15.02002   15.71332
       H    15.46625  -17.23774   16.13876
       O    15.93538  -17.13693   17.00244
      H1    15.59650  -16.33219   17.36432

