63
frame 2 | Written by MDAnalysis XYZWriter (release 2.4.3)
       H     9.02771    4.61482   -8.48168
       O     9.84429    4.70386   -7.95943
      H1     9.65715    4.41739   -7.05123
       H     9.28825    8.42610  -12.14974
       O     8.74887    8.84244  -11.44278
      H1     9.11515    8.61871  -10.52482
       H    14.70298   10.24145   -9.44981
       O    14.70960    9.42948   -9.98573
      H1    14.15504    8.85809   -9.44875
       H    12.88285    5.13391  -14.00050
       O    13.07422    4.62746  -13.13702
      H1    12.47213    4.94626  -12.39915
       H    11.91181   10.78230  -10.97252
       O    11.92383   11.56619  -10.34027
      H1    11.61248   11.08481   -9.48552
       H    12.44156    8.95387  -11.79363
       O    11.54373    9.36837  -11.90401
      H1    10.96787    9.07148  -11.19778
       H     9.69288    5.01975  -12.96361
       O     9.39041    5.89360  -12.70310
      H1     9.60142    6.55056  -13.38724
       H     8.50066    4.28223  -15.21097
       O     9.06263    3.82685  -14.51462
      H1     8.49243    3.07901  -14.29359
       H     6.94986    5.74171   -8.97469
       O     7.28973    5.04797   -9.54178
      H1     6.52690    4.69939   -9.95985
       H     9.53767    8.40557   -8.36097
       O     9.91993    7.98241   -9.15903
      H1     9.57042    7.10321   -9.13595
       H    11.60561    9.85559   -7.40599
       O    11.12047   10.29054   -8.10652
      H1    10.62395   10.99066   -7.67657
       H     8.13328    2.28288  -11.10401
       O     8.82313    2.74639  -11.61880
      H1     9.00267    3.45380  -11.04704
       H    14.04314    7.32493  -11.41808
       O    14.27727    7.85239  -12.19848
      H1    14.82393    8.55992  -11.77656
       H    10.78836    6.41800  -10.96066
       O    11.50884    5.83935  -10.60880
      H1    11.94169    6.43797  -10.02156
       H     9.49394    8.63256  -14.80439
       O     9.80863    8.32884  -13.95830
      H1    10.65222    8.78981  -13.84198
       H     7.52183    6.03230  -12.60077
       O     6.60357    6.03441  -12.81694
      H1     6.11765    6.66047  -12.32761
       H    15.45241    6.06860  -12.19781
       O    15.27990    5.23568  -11.70998
      H1    14.38353    5.02338  -11.97958
       H    12.14054    1.64844  -14.16070
       O    12.30068    1.91382  -13.26305
      H1    12.42152    2.89638  -13.30538
       H    11.52940    3.81877   -8.25405
       O    12.35673    3.36894   -8.15672
      H1    12.48738    2.66200   -8.82480
       H    11.87683    8.16625   -8.65320
       O    12.65328    7.67897   -8.96729
      H1    13.20203    7.39581   -8.18902
       H    10.49427    6.84174   -5.54777
       O    10.98101    7.65025   -5.76829
      H1    11.26181    7.64706   -6.73399

