63
frame 2 | Written by MDAnalysis XYZWriter (release 2.4.3)
       H   -11.03463   17.84134   -0.91247
       O   -11.62818   17.53886   -0.20533
      H1   -11.14476   16.97829    0.38171
       H   -10.90610   16.48826   -9.12797
       O   -11.11206   16.64767  -10.10595
      H1   -10.21719   16.89167  -10.41016
       H   -13.77543   16.74657   -4.73656
       O   -13.59328   17.58034   -4.27362
      H1   -13.89899   17.40248   -3.35942
       H   -11.03784   16.76652   -6.50851
       O   -11.49948   16.46789   -7.28877
      H1   -12.34963   16.94942   -7.24946
       H    -9.69818   18.34992   -5.17408
       O    -9.75991   17.38004   -5.12608
      H1    -9.04554   17.09280   -5.69290
       H    -6.42906   19.01955   -9.34400
       O    -7.29594   18.86977   -9.80594
      H1    -7.30916   17.86831   -9.79557
       H    -8.39324   17.05452   -2.21837
       O    -7.66981   16.45168   -2.03731
      H1    -7.95404   15.52597   -2.23937
       H    -4.94422   15.83231   -5.06342
       O    -5.77641   16.31838   -5.18029
      H1    -6.08216   16.55843   -4.24072
       H    -8.33323   16.09753   -8.71976
       O    -8.28196   16.44646   -9.62418
      H1    -8.27889   15.67195  -10.15992
       H   -11.43956   12.57510   -4.66719
       O   -11.71146   13.23805   -4.04044
      H1   -12.65935   13.19384   -3.90430
       H    -9.82038   17.81195   -3.29150
       O    -9.73020   18.15275   -2.35616
      H1    -9.63680   19.09746   -2.37855
       H    -7.89580   14.87079   -7.05278
       O    -7.86723   15.81890   -6.91955
      H1    -7.14896   15.94739   -6.28927
       H   -11.36006   13.27429   -8.80128
       O   -11.71890   13.24580   -7.92208
      H1   -11.57775   14.10000   -7.53526
       H   -16.80641   18.11879   -4.92881
       O   -16.28251   18.80727   -4.52800
      H1   -15.31495   18.65050   -4.64392
       H    -5.16550   18.06363   -3.07891
       O    -6.09746   18.32730   -3.03562
      H1    -6.45943   17.52999   -2.62450
       H   -14.39662   18.31636   -7.93913
       O   -13.98903   17.43583   -7.71432
      H1   -14.03780   16.94043   -8.57474
       H    -4.06933   19.07319   -5.74902
       O    -4.01231   18.25393   -6.26639
      H1    -4.73918   17.72548   -5.90417
       H    -7.53150   17.08290    0.08575
       O    -7.84662   17.40612    0.96640
      H1    -8.18933   18.33556    0.85498
       H   -11.35358   19.52604  -11.24097
       O   -11.76156   19.46661  -10.34669
      H1   -11.85889   18.51462  -10.17432
       H    -4.62053   20.27591   -8.40597
       O    -4.61007   19.30748   -8.61727
      H1    -4.38076   18.84163   -7.76821
       H   -10.38358   14.39597   -3.27240
       O    -9.46842   14.30098   -3.03989
      H1    -9.35137   13.42444   -3.35042

