63
frame 1 | Written by MDAnalysis XYZWriter (release 2.4.3)
       H    -4.86148    4.71185   10.22715
       O    -4.81075    4.62749   11.22162
      H1    -5.24731    3.74243   11.36365
       H    -7.82792   -0.69817   12.78125
       O    -6.87067   -0.58371   12.44688
      H1    -6.30936   -1.24216   12.88394
       H    -2.21104   -1.56288   13.12714
       O    -2.58302   -1.20092   12.29803
      H1    -2.57610   -0.22666   12.38191
       H    -1.82118    4.68461   13.66734
       O    -2.11001    4.58125   14.57136
      H1    -1.24979    4.28098   14.89456
       H    -1.64161    5.17595   10.84128
       O    -2.00430    4.32344   10.97925
      H1    -2.97283    4.51772   11.05589
       H     0.10460   -0.18731   14.38068
       O    -0.23949    0.36020   13.65804
      H1    -0.62965    1.18909   14.07529
       H     0.48234   -2.51141    8.69546
       O    -0.27971   -2.88442    9.25123
      H1    -1.07070   -2.61643    8.80952
       H    -0.53762    1.82346   16.45454
       O    -0.65778    2.74676   16.20059
      H1    -1.06876    3.14705   16.99659
       H    -0.46196   -3.19872   13.96572
       O    -1.16625   -2.60227   14.26304
      H1    -1.71961   -3.09175   14.80793
       H    -2.81568   -6.34136   10.69335
       O    -2.63270   -6.14127   11.65186
      H1    -2.39552   -5.23719   11.72408
       H    -0.31539   -0.94737   11.95542
       O     0.37657   -1.18296   11.33815
      H1     0.11794   -1.56529   10.53014
       H    -4.13890   -1.82699   12.96561
       O    -4.79141   -2.21677   13.62382
      H1    -5.11968   -3.09048   13.35314
       H    -2.68664   -2.40494   10.59296
       O    -3.30626   -2.86497    9.99672
      H1    -4.17509   -2.65176   10.36410
       H    -1.52558    3.15197    9.06510
       O    -1.18255    3.03845    8.12308
      H1    -0.36150    3.59409    8.01148
       H     1.01851    0.89448   12.38799
       O     1.63375    1.53455   12.09477
      H1     1.67004    1.42880   11.12781
       H    -5.00208   -1.24971   15.05873
       O    -5.41652   -0.70093   15.76371
      H1    -5.15622    0.22811   15.71242
       H    -3.39077   -1.20788   18.32454
       O    -3.78496   -1.90561   17.76106
      H1    -4.24456   -1.36076   17.06743
       H    -2.75970    2.98509   14.41413
       O    -3.30377    2.16200   14.22069
      H1    -3.92412    2.22149   15.04230
       H    -4.40407    2.05963   12.63867
       O    -5.13948    1.76951   12.09943
      H1    -5.50501    0.95643   12.36715
       H    -0.57678    3.62830   11.92864
       O     0.18984    3.72308   12.52675
      H1     0.75711    2.91242   12.37041
       H    -5.10291    1.96428    8.70196
       O    -5.74156    1.91885    9.41232
      H1    -5.23256    1.91580   10.26571

