63
frame 1 | Written by MDAnalysis XYZWriter (release 2.4.3)
       H    17.61649  -11.89281  -16.79059
       O    18.58355  -12.04229  -16.59976
      H1    18.64289  -11.26560  -16.03101
       H    15.63324  -14.77737  -15.55293
       O    15.57882  -13.91989  -15.17998
      H1    15.34201  -14.09889  -14.24865
       H    10.92175  -12.24520  -17.53854
       O    10.65414  -12.78102  -18.31070
      H1     9.70826  -12.65471  -18.34876
       H     9.17880  -10.16459  -14.00498
       O     9.53386  -10.40290  -14.87229
      H1     9.00237   -9.96487  -15.47022
       H    13.63321  -12.22181  -11.05001
       O    13.16021  -12.13326  -10.17451
      H1    13.53119  -11.23812   -9.87199
       H    14.05746  -12.74635  -13.43944
       O    14.33597  -13.08097  -12.55754
      H1    15.30382  -12.91029  -12.46542
       H    12.48060   -8.21192  -16.92083
       O    13.11083   -8.90811  -17.22461
      H1    13.34598   -8.58890  -18.12136
       H    16.75978  -13.16195  -18.66574
       O    16.80167  -13.89882  -19.32160
      H1    16.38152  -14.57633  -18.79216
       H    15.14313  -11.24158  -17.77442
       O    16.12865  -11.37256  -17.68776
      H1    16.61548  -10.99848  -18.41854
       H    11.97054  -11.22495  -11.09539
       O    11.52934  -10.78366  -11.87435
      H1    12.19599  -10.12219  -12.12216
       H    15.50251   -8.34989  -15.19156
       O    15.35608   -9.00048  -14.43508
      H1    15.02216   -9.80617  -14.87582
       H    13.27587  -11.15268  -15.09115
       O    14.22980  -11.31072  -14.92736
      H1    14.40679  -12.23754  -15.07326
       H    13.48179   -7.83433  -12.18898
       O    13.25739   -8.66528  -12.66542
      H1    13.89999   -8.58879  -13.38912
       H    19.32034  -10.01305  -12.97252
       O    18.81751   -9.25296  -12.75207
      H1    17.89816   -9.62024  -12.63802
       H    11.80973   -7.48121  -13.69104
       O    11.33185   -7.16701  -14.47646
      H1    10.44026   -6.99947  -14.09225
       H    14.60313   -7.98387  -16.90153
       O    15.38538   -7.53869  -16.73246
      H1    15.16598   -6.59965  -16.88197
       H    15.38445   -9.83158   -9.28132
       O    14.60640   -9.82672   -9.86347
      H1    14.93342  -10.02880  -10.75514
       H    10.32943  -14.23361  -12.22029
       O     9.73044  -13.47945  -12.46840
      H1    10.31988  -12.77112  -12.81826
       H    17.45434  -13.14279  -11.80489
       O    17.00971  -12.87892  -12.60683
      H1    17.55520  -13.26778  -13.30287
       H    10.90785  -10.69229  -15.71658
       O    11.72596  -11.12652  -16.09783
      H1    12.17166  -10.33615  -16.49235
       H    16.48972  -11.18690  -12.10605
       O    16.25613  -10.23895  -12.04708
      H1    15.75704  -10.07161  -12.83504

