63
frame 0 | Written by MDAnalysis XYZWriter (release 2.4.3)
       H    -0.63418  -17.53922    0.63641
       O     0.30987  -17.60853    0.64851
      H1     0.60724  -16.94289    0.00814
       H    -0.19705  -13.56574    5.44148
       O    -0.22876  -12.66340    5.66544
      H1     0.59293  -12.53199    6.12539
       H     3.55159  -14.69156    0.97038
       O     3.67418  -15.07560    1.82992
      H1     4.17002  -15.85870    1.69345
       H     3.41683  -20.19296    8.98378
       O     4.01831  -19.46238    9.24805
      H1     3.61175  -18.65766    8.97164
       H    -0.44143  -14.87707    3.48054
       O     0.05245  -15.21745    4.23590
      H1     0.97701  -14.93972    4.00631
       H     5.19451  -18.98167    2.04985
       O     4.90857  -18.07094    2.29831
      H1     5.72033  -17.48611    2.42510
       H    -3.31091  -17.31839    3.94043
       O    -2.89986  -17.13341    4.75187
      H1    -2.21632  -17.84867    4.69948
       H     3.27189  -17.43575    7.07798
       O     3.40431  -17.24695    8.01469
      H1     2.82311  -16.51223    8.28742
       H    -0.26776  -18.22130    8.36226
       O    -0.17220  -17.26063    8.22140
      H1     0.50293  -17.02192    8.81217
       H    -1.53905  -19.96950    2.77663
       O    -1.59610  -19.29674    3.43688
      H1    -0.72105  -18.89183    3.58686
       H    -2.43124  -17.25105    7.37110
       O    -3.21357  -17.54034    7.82903
      H1    -3.88048  -17.27085    7.12645
       H     3.93698  -17.13398    5.16227
       O     3.50258  -17.97998    5.11213
      H1     3.20974  -17.98102    4.20364
       H    -2.93056  -15.24257    4.72008
       O    -3.30396  -14.35493    4.73730
      H1    -4.16311  -14.46140    4.36226
       H    -1.92791  -15.85681   -0.43891
       O    -2.22648  -16.11789    0.47863
      H1    -2.12375  -15.33216    1.02956
       H    -0.12865  -17.31913    6.59037
       O    -0.06823  -17.51728    5.60120
      H1    -0.03838  -16.63717    5.23317
       H    -3.38016  -17.04107    1.57454
       O    -3.95427  -17.39672    2.29847
      H1    -4.86596  -17.01463    2.27812
       H     0.04161  -13.56039    1.08615
       O     0.92599  -13.39723    0.91506
      H1     1.03014  -12.43432    0.82365
       H     3.16403  -13.61915    4.31358
       O     2.80101  -14.50696    4.15683
      H1     3.02899  -14.71165    3.18851
       H     2.14229  -18.31338    0.44120
       O     2.93705  -18.76770    0.12892
      H1     3.68855  -18.57306    0.80746
       H     1.08524  -18.18424    4.28271
       O     1.16291  -18.48035    3.37417
      H1     0.60567  -17.95691    2.69697
       H    -2.27435  -13.27495    1.98328
       O    -1.78922  -13.96838    2.42929
      H1    -2.15182  -13.91273    3.34846

