63
frame 2 | Written by MDAnalysis XYZWriter (release 2.4.3)
       H     8.95308   -0.95879    0.09298
       O     8.21523   -1.58298    0.10831
      H1     8.64506   -2.40036    0.27709
       H     4.67579   -1.46757   -3.18438
       O     4.49920   -2.35163   -3.51012
      H1     5.31211   -2.80353   -3.26558
       H     5.52720   -2.23654    1.92637
       O     5.81788   -2.87826    1.21496
      H1     6.45903   -2.34774    0.71089
       H     1.80414    2.78283    1.34533
       O     2.47785    2.91921    0.67792
      H1     2.98448    2.08061    0.64835
       H     2.09809   -1.35822   -0.75143
       O     2.26203   -2.23067   -1.12046
      H1     2.70294   -2.16967   -1.90826
       H     5.35168    3.20165    0.78749
       O     5.77366    2.56018    0.21609
      H1     5.38253    2.81744   -0.65841
       H     5.63637    0.83135   -2.37137
       O     4.82957    0.33382   -2.58038
      H1     4.34849    0.42542   -1.73242
       H     1.37515    4.40446   -2.01492
       O     2.06662    3.76216   -1.90430
      H1     1.98591    3.59327   -0.95698
       H     7.12425    1.35823    1.30049
       O     7.06064    1.03321    2.17222
      H1     7.01608    1.76572    2.79450
       H     3.59334    0.18509   -4.30756
       O     2.73180   -0.05404   -4.68157
      H1     2.70763   -1.01947   -4.80158
       H     5.10866    3.89479   -5.39657
       O     5.81784    3.69605   -6.03233
      H1     6.38085    3.01088   -5.66045
       H     1.70116    2.10980   -2.55963
       O     1.14002    1.33590   -2.83266
      H1     1.69347    0.88923   -3.47653
       H     7.62849    2.05535   -3.06836
       O     7.16377    1.49730   -2.47340
      H1     7.74301    1.28058   -1.71141
       H     2.84160    0.57632   -6.36117
       O     3.14346    0.78579   -7.24938
      H1     2.33700    1.13319   -7.64078
       H     5.72707   -4.58357   -1.44411
       O     6.50721   -4.11419   -1.77314
      H1     7.13228   -4.31117   -1.09181
       H     8.67601   -1.71164   -1.97458
       O     9.34662   -1.89246   -2.62063
      H1     9.86607   -1.09974   -2.76417
       H     5.34732   -2.90352   -5.39950
       O     6.10139   -2.61271   -5.91798
      H1     6.74695   -2.18180   -5.33906
       H     3.92261    3.90311   -1.88798
       O     4.87745    3.98011   -2.01654
      H1     5.19116    4.68738   -1.51598
       H     7.46129   -0.13885   -4.68693
       O     7.88485   -1.01046   -4.87544
      H1     8.41312   -1.29844   -4.15997
       H     4.64510    1.15730    0.32029
       O     3.81322    0.74990   -0.02390
      H1     3.37024    0.17595    0.61847
       H     7.30066    3.57577   -0.25610
       O     7.92744    4.30776   -0.26610
      H1     8.78753    3.94438    0.02893

