63
frame 2 | Written by MDAnalysis XYZWriter (release 2.4.3)
       H     0.22578  -12.65105    5.28582
       O    -0.06074  -11.79044    5.54197
      H1     0.73829  -11.32872    5.87549
       H    -0.84818   -5.84855    6.70545
       O    -0.23481   -6.51269    6.28200
      H1    -0.47392   -7.37486    6.66845
       H     0.66999  -12.26809   11.58412
       O     0.29534  -12.89874   10.93764
      H1     0.13761  -12.39508   10.11907
       H    -0.89470   -9.93874   11.18800
       O    -0.48566   -9.08184   11.00874
      H1     0.40360   -9.40234   10.74669
       H    -3.80136  -10.16881    6.52516
       O    -3.57702   -9.86796    5.62972
      H1    -3.57585  -10.66499    5.09821
       H    -0.05781  -14.22919    4.26660
       O     0.60543  -14.27692    4.94572
      H1     1.50555  -14.31065    4.62385
       H    -2.54535   -6.26164    8.47109
       O    -2.73915   -7.10291    8.84039
      H1    -2.27644   -7.74374    8.22703
       H     4.41068  -11.90712    8.35816
       O     3.76592  -12.46784    7.90304
      H1     4.39085  -13.14466    7.40937
       H    -3.44324  -10.60299   11.81041
       O    -2.74279  -11.09734   11.33846
      H1    -3.28818  -11.64726   10.69132
       H    -2.52559  -12.14889   12.69178
       O    -2.47622  -12.92495   13.28992
      H1    -3.34399  -13.30256   13.25582
       H     0.81380  -11.16215    8.45248
       O    -0.08178  -11.35315    8.54029
      H1    -0.38397  -11.70006    7.67058
       H    -1.92892   -9.46015    6.82558
       O    -1.31933   -8.88532    7.24413
      H1    -0.72829   -9.38026    7.80724
       H     2.04403  -10.25579   11.13149
       O     1.90224   -9.97912   10.21032
      H1     2.57013   -9.29100    9.97103
       H    -4.27488   -9.11428    8.91221
       O    -4.93265   -9.58512    8.40621
      H1    -5.09987  -10.48692    8.81146
       H     4.67093  -11.62065   10.58821
       O     4.22060  -12.17365   11.23513
      H1     3.64781  -12.75397   10.67747
       H    -0.15689  -10.24178    4.17838
       O     0.11504   -9.67017    3.40275
      H1    -0.31070   -8.81541    3.56716
       H     2.53585  -11.03026    7.20486
       O     1.87372  -10.33478    7.00894
      H1     2.44152   -9.54495    6.83246
       H     0.13998   -7.27096   10.58281
       O     0.57811   -6.38840   10.49118
      H1     0.10713   -6.02252    9.77277
       H    -4.36085  -14.04177    8.58336
       O    -4.79194  -13.53378    7.87648
      H1    -4.14835  -13.56299    7.14800
       H     1.74588  -13.42368   10.28963
       O     2.58412  -13.85761    9.92172
      H1     2.98777  -13.37221    9.16427
       H    -0.01572  -15.91049   10.47069
       O    -0.82451  -15.53950   10.82672
      H1    -0.78186  -14.58858   10.83918

