63
frame 2 | Written by MDAnalysis XYZWriter (release 2.4.3)
       H     9.02771    4.61482   -8.48168
       O     9.84429    4.70386   -7.95943
      H1     9.65715    4.41739   -7.05123
       H    12.46930    3.86095   -6.54301
       O    12.36027    3.92187   -5.55530
      H1    13.18715    4.43177   -5.30425
       H    10.45320    2.99040   -2.33878
       O    11.09677    3.25650   -1.71211
      H1    11.79644    3.69704   -2.13218
       H     9.73253    0.23086   -7.30055
       O     9.12777    0.94061   -7.24082
      H1     8.46657    0.85532   -8.01559
       H     6.94986    5.74171   -8.97469
       O     7.28973    5.04797   -9.54178
      H1     6.52690    4.69939   -9.95985
       H     9.53767    8.40557   -8.36097
       O     9.91993    7.98241   -9.15903
      H1     9.57042    7.10321   -9.13595
       H     9.64369    1.07618   -3.75113
       O    10.21842    0.65799   -3.11983
      H1    11.11031    0.80492   -3.39868
       H    12.94499    2.25477   -4.64463
       O    12.69797    1.37348   -4.23908
      H1    13.31456    1.43327   -3.47648
       H     5.10866    3.89479   -5.39657
       O     5.81784    3.69605   -6.03233
      H1     6.38085    3.01088   -5.66045
       H     9.34465    8.74054   -6.40762
       O     8.59283    9.02269   -6.93592
      H1     8.00267    8.23132   -6.99896
       H    11.97232    5.91832   -1.90819
       O    11.14953    6.43222   -2.07197
      H1    11.44851    6.75755   -2.93341
       H     9.51961    4.81105   -4.53278
       O     9.99533    4.96947   -5.38167
      H1    10.89891    4.53478   -5.30465
       H     5.83547    6.90004   -7.33931
       O     6.74856    7.05434   -7.67883
      H1     6.69447    7.98809   -7.97010
       H     7.62849    2.05535   -3.06836
       O     7.16377    1.49730   -2.47340
      H1     7.74301    1.28058   -1.71141
       H     7.34431    6.07129   -2.78181
       O     6.65376    6.58588   -2.41642
      H1     7.09968    7.42463   -2.41640
       H    14.89962    6.35959   -4.68035
       O    13.98531    6.74469   -4.58667
      H1    14.12943    7.45700   -3.94972
       H    11.52940    3.81877   -8.25405
       O    12.35673    3.36894   -8.15672
      H1    12.48738    2.66200   -8.82480
       H    11.87683    8.16625   -8.65320
       O    12.65328    7.67897   -8.96729
      H1    13.20203    7.39581   -8.18902
       H     8.68650    1.84133   -5.73857
       O     8.43543    2.48725   -5.10920
      H1     8.83597    3.30306   -5.47866
       H    10.49427    6.84174   -5.54777
       O    10.98101    7.65025   -5.76829
      H1    11.26181    7.64706   -6.73399
       H     9.57226    5.17622   -2.57651
       O     8.85572    4.64888   -3.00261
      H1     8.21145    4.70678   -2.31097

