63
frame 2 | Written by MDAnalysis XYZWriter (release 2.4.3)
       H    16.65686   -1.02479   12.53184
       O    16.34568   -1.71263   13.12687
      H1    15.62414   -1.39355   13.65826
       H    12.88129   -4.35633    7.40976
       O    13.60452   -3.94125    7.99494
      H1    14.00102   -3.26063    7.38396
       H    13.73827    0.50806   11.29405
       O    13.66246   -0.41966   11.67037
      H1    13.88463   -1.02183   10.96509
       H    18.77791   -4.24836    7.57279
       O    18.57723   -3.40201    8.07755
      H1    18.09722   -3.61822    8.93517
       H    14.69933   -1.37612    8.85844
       O    14.95034   -1.81555    9.66350
      H1    15.66642   -2.42210    9.61730
       H    13.10919   -4.26792   13.72151
       O    13.06508   -3.30212   13.65206
      H1    13.64108   -3.17855   12.83169
       H    14.24171   -3.53452    5.40425
       O    14.70540   -2.72825    5.70664
      H1    15.67629   -2.85715    5.60898
       H    16.57594    0.32980    5.08124
       O    16.93237   -0.35756    4.44781
      H1    16.36395   -0.34430    3.71065
       H    18.39450    1.61300    9.01260
       O    18.47516    2.53376    9.30234
      H1    18.12200    2.98439    8.53349
       H    17.59087   -1.85953    5.20872
       O    17.63573   -2.77083    5.53222
      H1    17.91090   -2.75730    6.42924
       H    13.51798    0.32128    7.25617
       O    13.76266   -0.61657    7.55405
      H1    13.98611   -1.13465    6.74335
       H    18.24801   -0.62042    7.92270
       O    17.75746    0.11603    8.23961
      H1    16.91957    0.14412    7.79601
       H    16.49640   -4.50739   10.09033
       O    17.05111   -3.69238   10.23475
      H1    17.66846   -3.82217   10.95038
       H    16.35010   -0.79838   10.58068
       O    17.04055   -0.21538   10.92020
      H1    17.70947   -0.17196   10.19008
       H    14.58738   -4.96246    8.94286
       O    15.23917   -5.53160    9.41203
      H1    15.69434   -5.97981    8.66707
       H    15.21600    2.60234    9.88366
       O    15.29547    2.01931   10.69637
      H1    16.01131    1.40405   10.51079
       H    11.17479   -1.02684    7.48997
       O    10.26151   -0.86888    7.16560
      H1    10.12290   -1.74439    6.78959
       H    11.61246   -0.38786   10.01465
       O    11.30007    0.48831   10.10815
      H1    10.38250    0.44899   10.19287
       H    16.08330    2.08866    6.60342
       O    15.77804    1.21792    6.41440
      H1    14.96777    1.43896    5.93263
       H    11.56039   -2.97498   10.11399
       O    11.98628   -2.16267    9.81822
      H1    12.56308   -2.47307    9.14547
       H    11.47247    2.49744    7.64689
       O    12.13961    1.86489    7.95315
      H1    11.85005    1.52169    8.83096

