63
frame 2 | Written by MDAnalysis XYZWriter (release 2.4.3)
       H   -10.09805   -1.67748    2.00871
       O    -9.15619   -1.67468    2.22477
      H1    -9.11551   -0.90890    2.84941
       H    -7.65213    3.22041    7.49021
       O    -7.21155    3.93024    7.02332
      H1    -7.12793    3.61988    6.14429
       H    -6.90859    5.47738    1.73659
       O    -6.77037    5.30730    0.77048
      H1    -7.61443    4.92455    0.43632
       H   -11.10780    1.61583    3.01224
       O   -11.43613    2.13285    2.23246
      H1   -11.05104    1.66942    1.49249
       H    -3.80091    0.58990    3.23274
       O    -3.81397    1.43368    2.71011
      H1    -4.45527    1.37126    1.98057
       H   -11.18429    0.03250    4.69829
       O   -10.62734    0.81457    4.69418
      H1    -9.69947    0.52359    4.72502
       H    -5.09223    2.01972    0.06625
       O    -5.58583    1.62766    0.75837
      H1    -5.46437    0.68235    0.46721
       H    -8.19728    2.56110    2.69121
       O    -7.87227    1.82918    2.12865
      H1    -7.14447    2.13207    1.52792
       H    -4.68114   -1.02163   -0.22060
       O    -5.42891   -1.15751    0.42775
      H1    -6.30729   -1.11288    0.00597
       H    -7.03691    0.17245   -2.66914
       O    -7.64780    0.90656   -2.35451
      H1    -8.00661    0.56762   -1.50004
       H   -11.18537    2.22347   -1.37485
       O   -12.11178    2.41029   -1.62142
      H1   -12.06730    2.67303   -2.60023
       H    -7.75469   -0.05006    5.26222
       O    -8.18804    0.09912    4.39810
      H1    -7.79697    0.79601    3.86889
       H   -11.53454    5.45813    2.97905
       O   -11.05667    4.94151    2.28595
      H1   -11.32059    4.01002    2.31204
       H    -4.58000    2.82454    6.68064
       O    -5.02640    2.35925    5.93987
      H1    -4.55960    2.77480    5.18661
       H    -8.12826   -1.81935   -0.78627
       O    -8.00144   -1.05231   -0.23834
      H1    -7.99030   -1.44499    0.65968
       H    -8.13892    4.51360    4.04260
       O    -8.52879    3.62487    4.11485
      H1    -9.48678    3.77155    4.17475
       H    -4.97693    4.35876    0.27212
       O    -4.37816    4.00784   -0.41201
      H1    -3.48433    4.09229   -0.03571
       H    -4.74127    4.37846    3.89825
       O    -3.99813    3.81609    4.09369
      H1    -3.99163    3.05145    3.47727
       H    -5.03257    5.72650    2.71412
       O    -5.76841    5.56278    3.31376
      H1    -5.91370    6.44890    3.70099
       H    -9.84334    4.79760    0.59806
       O    -9.19686    4.21383    0.13046
      H1    -9.01602    4.58369   -0.73166
       H    -9.28346    0.62776    0.06343
       O    -9.88262    1.36808   -0.03334
      H1    -9.40350    2.13253    0.25856

