63
frame 3 | Written by MDAnalysis XYZWriter (release 2.4.3)
       H   -17.53032   -2.14820  -12.21901
       O   -16.87214   -1.57394  -12.62697
      H1   -16.75252   -1.80771  -13.56541
       H   -18.00407    1.11559  -15.03063
       O   -18.15942    1.70278  -14.26467
      H1   -17.68411    2.47011  -14.68872
       H   -15.69664    0.01189  -13.05908
       O   -14.82788    0.44963  -12.95364
      H1   -14.12858    0.03234  -13.47219
       H   -18.00897    3.92922  -10.27553
       O   -18.35718    3.21345  -10.77725
      H1   -18.79359    2.55286  -10.22552
       H   -17.43057   -5.55170  -14.80405
       O   -18.26958   -5.08419  -14.89241
      H1   -18.80238   -5.54757  -14.21301
       H   -15.56794   -2.19505  -11.76573
       O   -14.80250   -2.57212  -11.29024
      H1   -14.92875   -3.53677  -11.23903
       H   -16.08790    0.61588  -17.67938
       O   -15.46497   -0.00863  -17.21392
      H1   -14.88815    0.62767  -16.80214
       H   -17.32174   -3.43841  -10.36792
       O   -18.06055   -2.95916  -10.72399
      H1   -18.38083   -2.65151   -9.87292
       H   -15.61631   -1.38210   -8.44880
       O   -15.01273   -2.13720   -8.47132
      H1   -14.74085   -2.12534   -9.39046
       H   -15.67432    1.69160  -11.91391
       O   -15.84419    2.50862  -11.36307
      H1   -16.80887    2.63396  -11.21145
       H   -13.33559   -1.08008   -9.00642
       O   -12.42052   -1.16054   -9.19977
      H1   -12.36044   -0.55092  -10.00646
       H   -13.27773   -2.20271  -12.09873
       O   -12.46290   -2.06230  -12.64304
      H1   -12.68920   -1.55619  -13.40513
       H   -19.72905   -2.14481   -7.75859
       O   -18.82069   -2.37585   -7.88429
      H1   -18.36178   -1.50832   -7.84546
       H   -15.20460   -5.78367  -14.67312
       O   -15.90844   -5.80647  -14.03077
      H1   -16.00797   -6.68494  -13.69822
       H   -19.76358   -2.74965  -15.89291
       O   -19.12039   -2.59704  -16.62470
      H1   -19.28268   -1.70006  -16.97707
       H   -17.46699    0.33580   -7.00414
       O   -17.42404   -0.24367   -7.74660
      H1   -17.86488    0.19510   -8.44918
       H   -15.38703    1.85681   -9.79596
       O   -14.90303    1.44389   -9.07117
      H1   -15.11878    1.96122   -8.29689
       H   -16.26431   -0.94384  -16.17759
       O   -16.60469   -1.58323  -15.45851
      H1   -17.29289   -2.18587  -15.79302
       H   -18.30468   -7.32789  -12.16796
       O   -17.39073   -7.42396  -11.94871
      H1   -17.14891   -6.64135  -11.57461
       H   -14.95829   -2.49061  -15.01920
       O   -14.09644   -2.84833  -15.11461
      H1   -13.76147   -3.07362  -14.23346
       H   -15.90120   -4.87412  -12.32437
       O   -15.63804   -5.04080  -11.39916
      H1   -15.13617   -5.86862  -11.26859

