63
frame 2 | Written by MDAnalysis XYZWriter (release 2.4.3)
       H   -18.10907  -15.68188  -10.53054
       O   -18.97805  -15.70706  -10.91206
      H1   -18.74119  -15.91509  -11.84946
       H   -18.50657  -12.33154  -10.89199
       O   -17.63562  -12.03478  -11.15727
      H1   -17.57822  -11.09699  -10.97721
       H   -17.44545   -5.06781   -6.94641
       O   -17.94736   -5.44245   -6.21744
      H1   -18.20209   -4.69900   -5.67653
       H   -14.07623  -16.06378   -8.06292
       O   -14.90443  -16.26546   -7.62228
      H1   -15.60945  -15.95792   -8.21681
       H   -13.74804   -9.36267  -10.78597
       O   -14.28443   -9.57534  -11.56565
      H1   -15.18721   -9.30413  -11.35994
       H   -17.81440  -15.24414   -8.26247
       O   -17.13194  -15.46484   -8.90067
      H1   -16.82015  -14.58796   -9.20336
       H   -16.96260  -15.64491   -3.46638
       O   -17.60087  -15.14095   -3.95062
      H1   -18.35128  -15.68248   -3.92692
       H   -17.02016   -8.20707  -11.32245
       O   -16.95303   -9.12558  -11.01014
      H1   -17.01326   -9.00116  -10.04263
       H   -18.86588   -7.73123   -8.15862
       O   -18.18091   -8.31900   -7.85688
      H1   -18.17913   -8.25201   -6.88507
       H   -16.06750   -8.49502   -5.04403
       O   -15.37711   -7.97488   -5.52327
      H1   -15.44535   -8.32019   -6.40041
       H   -13.03333   -9.54572   -5.17542
       O   -13.02966   -8.88729   -4.48638
      H1   -13.91207   -8.53249   -4.68310
       H   -19.95680  -12.21822   -1.00705
       O   -19.22874  -12.81502   -1.16662
      H1   -18.83220  -12.53714   -2.00936
       H   -17.71447  -10.96096   -5.34836
       O   -17.27147  -10.82719   -4.48280
      H1   -17.68932  -10.05427   -4.18399
       H   -19.51922  -15.56801   -6.71606
       O   -18.89804  -14.82172   -6.78407
      H1   -18.31480  -14.92153   -6.03607
       H   -16.23573  -12.30184   -4.41747
       O   -15.66557  -13.07166   -4.54955
      H1   -16.17336  -13.86299   -4.74870
       H   -19.18367   -7.84409   -4.91121
       O   -18.25174   -7.88175   -5.04495
      H1   -18.07086   -6.97267   -5.41413
       H   -13.23441  -11.50856   -6.53304
       O   -13.43212  -10.62796   -6.79883
      H1   -14.14773  -10.57316   -7.45694
       H   -15.41816  -11.30814   -9.09138
       O   -15.77639  -10.53675   -8.56250
      H1   -16.53285  -10.80170   -8.07312
       H   -14.47548  -13.88679   -9.32477
       O   -15.26206  -13.35180   -9.45203
      H1   -15.53456  -13.47651  -10.32967
       H   -19.00891  -11.52020   -7.43512
       O   -18.20226  -10.97918   -7.22681
      H1   -18.28971  -10.12086   -7.69031
       H   -14.06874  -13.20113   -5.23187
       O   -13.19336  -13.31275   -5.61515
      H1   -12.62910  -12.75636   -4.95272

