63
frame 2 | Written by MDAnalysis XYZWriter (release 2.4.3)
       H     9.27838  -11.88856   10.90547
       O     9.85508  -12.63860   10.64183
      H1     9.28329  -13.39927   10.57055
       H     6.04182  -10.58610    8.44659
       O     5.72968  -10.69971    9.32721
      H1     6.48270  -10.44123    9.84626
       H     9.43274  -14.48361   14.05539
       O    10.06666  -14.89485   14.65358
      H1     9.55097  -15.41309   15.28983
       H     8.02038  -10.73865   12.40353
       O     8.06803  -10.49716   11.46162
      H1     8.42846   -9.61684   11.61955
       H    12.27413  -12.97486   15.38791
       O    11.55184  -12.98800   16.05551
      H1    10.82499  -13.25803   15.52341
       H     5.29987  -13.51860   11.68208
       O     5.75331  -14.33794   11.92512
      H1     6.42199  -14.45923   11.21527
       H    10.77961   -8.66524   15.85002
       O    10.42957   -8.23071   15.09991
      H1     9.60436   -7.77375   15.40469
       H     7.31211  -11.79475   19.32430
       O     7.04087  -11.74194   18.42990
      H1     7.82978  -11.54142   17.90075
       H    10.29872  -12.22875   12.66500
       O    10.93008  -11.66969   13.06463
      H1    11.65725  -11.61155   12.35028
       H     4.28648  -10.76996   14.77701
       O     4.42922  -10.45128   13.84893
      H1     3.55245  -10.70029   13.54162
       H     9.21354   -8.69848   13.38066
       O     9.00015   -8.16244   12.59480
      H1     9.87257   -7.91674   12.32638
       H     3.32825  -10.60572   17.06075
       O     3.72375  -11.27540   16.44792
      H1     3.96888  -12.00492   17.08229
       H     7.70435  -12.77096   13.62475
       O     8.17820  -13.51297   13.25809
      H1     7.54043  -14.09992   12.76335
       H     6.64164   -8.63184   19.35279
       O     6.74274   -8.84903   18.40656
      H1     6.78356   -9.81644   18.43008
       H     4.42652   -7.23009   12.83238
       O     4.35687   -7.37870   13.79601
      H1     4.08925   -8.28622   13.94366
       H     4.67093  -11.62065   10.58821
       O     4.22060  -12.17365   11.23513
      H1     3.64781  -12.75397   10.67747
       H     5.63654  -13.01632   13.97961
       O     5.30634  -13.38312   14.79861
      H1     4.40708  -13.10253   14.92205
       H     9.17976   -9.47399   16.68826
       O     8.94258  -10.40955   16.68749
      H1     9.80113  -10.80618   16.64768
       H     6.85409  -13.40961   17.61337
       O     6.76246  -14.03206   16.88165
      H1     6.37789  -13.58132   16.17870
       H     7.77720  -10.71304   14.99738
       O     7.29896  -10.93332   14.18779
      H1     6.40434  -10.51965   14.29532
       H     7.56898   -6.98395   15.92416
       O     8.29184   -7.26878   16.54404
      H1     7.84144   -7.68855   17.30628

