63
frame 2 | Written by MDAnalysis XYZWriter (release 2.4.3)
       H    11.61298    4.32039  -19.69827
       O    11.18470    4.35014  -18.81520
      H1    11.11123    3.46188  -18.55794
       H    13.24393    3.17697  -16.94540
       O    14.09339    3.50143  -17.33190
      H1    14.32282    2.76110  -17.95295
       H    11.65944   -0.65849  -18.22862
       O    12.18466    0.13034  -17.97448
      H1    13.00359    0.11951  -18.47442
       H    12.73921    7.50759  -15.86470
       O    12.97736    8.39205  -16.15520
      H1    12.65444    8.39434  -17.08998
       H    12.88285    5.13391  -14.00050
       O    13.07422    4.62746  -13.13702
      H1    12.47213    4.94626  -12.39915
       H     9.08472    0.04454  -17.22808
       O     8.89478    0.84297  -16.74721
      H1     8.54824    0.60475  -15.90177
       H     9.61310    8.38724  -17.22536
       O     9.45850    9.19309  -16.66047
      H1     9.35165    9.89676  -17.32785
       H    11.73843    5.36503  -16.41178
       O    12.36395    5.58215  -15.71568
      H1    13.18846    5.74606  -16.11078
       H     8.50066    4.28223  -15.21097
       O     9.06263    3.82685  -14.51462
      H1     8.49243    3.07901  -14.29359
       H    13.05602   -0.08856  -14.91590
       O    12.22742   -0.13377  -15.39807
      H1    12.26192   -0.17983  -16.38768
       H    15.09754    8.71248  -19.36450
       O    14.87677    7.79787  -19.34233
      H1    15.71714    7.26672  -19.51213
       H     9.07604    7.02638  -18.76981
       O     9.51993    6.69223  -18.00116
      H1    10.25613    6.20685  -18.35744
       H    14.83859    5.40084  -17.56880
       O    14.74093    6.26435  -17.07604
      H1    14.73178    7.03237  -17.71464
       H     8.65242    5.43838  -17.44267
       O     8.07755    4.76167  -17.02485
      H1     7.43627    5.30398  -16.54871
       H    14.47198    3.35589  -13.72801
       O    14.92534    2.97302  -14.48711
      H1    14.34890    3.18227  -15.23338
       H    10.48709    2.22034  -16.22149
       O    11.10654    2.95935  -16.35667
      H1    10.73507    3.49372  -15.69184
       H     7.15167    3.74444  -18.13300
       O     6.27916    3.38018  -18.45575
      H1     5.67319    4.09409  -18.15929
       H    15.38649    6.98430  -15.60930
       O    15.69515    7.11689  -14.68340
      H1    15.11327    7.65820  -14.15181
       H    11.59644    9.33043  -19.30469
       O    12.36712    8.86135  -18.91080
      H1    12.87265    8.48893  -19.63783
       H    12.14054    1.64844  -14.16070
       O    12.30068    1.91382  -13.26305
      H1    12.42152    2.89638  -13.30538
       H    17.33066    2.46989  -17.51713
       O    16.72087    2.31576  -16.78210
      H1    15.87039    2.62732  -17.00127

