63
frame 2 | Written by MDAnalysis XYZWriter (release 2.4.3)
       H     3.83677   -7.88371    2.65676
       O     4.58531   -7.44216    2.23927
      H1     4.31611   -7.26130    1.31321
       H     7.82122  -11.13227   -1.16903
       O     8.67835  -10.78843   -0.90094
      H1     9.24459  -10.94884   -1.67747
       H     5.50863   -9.25141    2.04919
       O     5.89877  -10.04654    1.66591
      H1     6.85308   -9.89994    1.65163
       H     3.10116   -9.96822    1.39306
       O     2.94718  -10.47146    0.60111
      H1     3.00590   -9.87757   -0.16831
       H     8.56108   -8.59322    1.50326
       O     8.62327   -9.59487    1.61853
      H1     8.80800   -9.92415    0.71027
       H     8.70899   -5.09722    0.27242
       O     8.62524   -4.26918   -0.13633
      H1     9.26158   -4.30477   -0.90725
       H     5.20801  -10.37465   -5.07315
       O     5.06167  -11.03031   -5.72473
      H1     5.43499  -11.84930   -5.47770
       H     9.10415   -7.15249   -0.71805
       O     8.67780   -7.40092   -1.48773
      H1     9.39559   -7.64032   -2.07108
       H     9.81937   -7.30655   -4.22947
       O    10.02864   -8.06924   -3.71819
      H1     9.60781   -8.81483   -4.17079
       H     3.95757   -7.16292   -4.40223
       O     3.01770   -6.92795   -4.54647
      H1     2.59111   -7.43524   -5.22355
       H     2.76892   -8.48259   -1.48025
       O     2.78746   -9.36156   -1.89647
      H1     2.76841   -9.21619   -2.86033
       H     5.72707   -4.58357   -1.44411
       O     6.50721   -4.11419   -1.77314
      H1     7.13228   -4.31117   -1.09181
       H     9.72749   -5.00736   -2.88737
       O    10.21479   -4.44084   -2.25946
      H1     9.92132   -3.46972   -2.36708
       H     4.42822   -7.35547   -0.88805
       O     3.53459   -7.19471   -0.55659
      H1     3.33441   -6.23435   -0.67605
       H     9.46352   -6.93341    1.81280
       O     8.65898   -6.95374    1.29123
      H1     7.97203   -6.63462    1.93440
       H     4.42711  -13.38292   -3.10642
       O     4.29820  -12.67856   -2.42531
      H1     4.96063  -12.00606   -2.48932
       H     6.27455   -8.15477   -4.91034
       O     5.51249   -8.43584   -4.31560
      H1     5.78844   -8.25541   -3.37565
       H     7.00244   -8.40507   -1.56535
       O     6.07793   -8.49687   -1.60413
      H1     5.89685   -9.41395   -1.33519
       H     7.51828   -5.19852   -2.95636
       O     8.07244   -5.81118   -3.49964
      H1     8.05440   -6.52843   -2.78845
       H     8.78868  -10.99900   -5.17431
       O     8.65264  -10.97832   -4.21046
      H1     9.01198  -11.83643   -3.99649
       H     5.53150  -10.72168    0.05942
       O     5.79679  -11.05166   -0.78880
      H1     5.26250  -11.84592   -0.78641

