63
frame 4 | Written by MDAnalysis XYZWriter (release 2.4.3)
       H   -17.26612    5.00189   19.26986
       O   -16.29013    4.87849   19.54174
      H1   -15.88552    5.75907   19.55672
       H   -10.38763    6.71893   13.73623
       O   -10.83316    6.81241   14.61350
      H1   -11.52519    7.44587   14.51311
       H   -13.22764    3.90038   12.37842
       O   -12.87646    3.19905   11.84101
      H1   -12.51764    2.60819   12.50772
       H   -13.02334    2.34489   16.83421
       O   -12.19623    2.79226   16.60419
      H1   -11.62238    2.30612   17.20217
       H   -13.95185    4.87484   14.50971
       O   -13.57952    5.18976   13.59393
      H1   -13.01010    5.90006   13.87280
       H   -16.78168    6.60092   15.60966
       O   -16.14198    7.29731   15.35741
      H1   -15.98056    7.04993   14.45238
       H   -11.74328   10.72171   15.79198
       O   -12.47672   11.02585   16.27338
      H1   -13.11800   10.31904   16.12889
       H   -13.52051    8.81682   14.45782
       O   -12.92064    8.30132   15.06259
      H1   -13.43998    7.81493   15.76314
       H    -8.92130    5.34892   12.66048
       O    -9.56363    6.04719   12.42714
      H1   -10.35081    5.56347   12.08431
       H   -14.23269    3.06131   17.82605
       O   -14.78749    2.29570   17.44734
      H1   -14.79098    1.49159   18.01401
       H   -14.72394    7.08797   16.48684
       O   -14.01298    6.85173   17.14355
      H1   -13.47972    6.13021   16.76971
       H   -15.03856    7.19417   11.66524
       O   -15.29657    7.00035   12.57062
      H1   -14.77109    6.26551   12.87080
       H    -9.12186    8.78171   16.00529
       O    -8.77460    7.88901   15.94936
      H1    -9.37044    7.41389   15.29552
       H   -10.76987    0.27341   18.18352
       O   -10.49411    1.13264   17.83415
      H1    -9.62826    1.40291   18.18255
       H    -8.32861    7.40894   17.64383
       O    -7.72507    7.27845   18.36615
      H1    -7.14370    6.56069   18.12651
       H   -14.35618    4.85603   18.89186
       O   -13.68385    4.20399   18.83541
      H1   -12.86114    4.69575   19.02179
       H   -14.31837    7.22224   18.81534
       O   -14.81772    7.21987   19.69324
      H1   -14.12429    7.04575   20.35747
       H   -16.22750    4.62481   15.79274
       O   -15.27778    4.37017   15.74366
      H1   -15.23378    3.56748   16.21582
       H   -11.64068    4.61654   16.82933
       O   -11.62105    5.57080   16.80252
      H1   -11.30603    5.86182   15.97755
       H   -11.29538    8.61760   17.49325
       O   -11.33426    8.18757   18.34683
      H1   -11.39359    7.21835   18.20840
       H   -12.04000    1.68021   14.78302
       O   -11.81970    1.35277   13.91647
      H1   -12.35908    0.49714   13.92894

