63
frame 3 | Written by MDAnalysis XYZWriter (release 2.4.3)
       H     9.96908   -5.48946  -10.09118
       O    10.82500   -5.38565   -9.53734
      H1    11.24291   -6.19842   -9.81842
       H    11.76838   -0.76337   -7.48199
       O    12.19159   -1.54781   -7.80483
      H1    12.39834   -1.40746   -8.67530
       H     6.63744   -5.25419   -7.37387
       O     6.97509   -4.34397   -7.53073
      H1     6.36577   -3.79455   -6.98071
       H     9.25431   -7.75514   -5.05579
       O    10.06053   -8.15093   -5.44032
      H1     9.82812   -8.27966   -6.34272
       H     6.87565   -3.68225   -9.32284
       O     6.92833   -3.71607  -10.28878
      H1     7.26882   -2.83861  -10.59390
       H    10.15847   -4.47938   -8.23275
       O     9.63853   -3.85503   -7.62568
      H1     8.77977   -4.31746   -7.41879
       H    14.64267   -3.73902   -7.68094
       O    14.52197   -4.66337   -7.47505
      H1    13.59154   -4.74413   -7.17991
       H     6.96435   -7.93163   -6.93962
       O     6.27582   -7.19643   -6.95411
      H1     5.35340   -7.52249   -6.83462
       H    11.38772   -3.67571  -10.23202
       O    11.56987   -2.91994  -10.72153
      H1    10.80783   -2.34813  -10.68107
       H     9.88165   -0.17829  -10.04001
       O    10.72935    0.02094  -10.42761
      H1    10.66288    0.93076  -10.73532
       H     8.79194   -0.41527   -7.62908
       O     8.99809   -1.03601   -8.33781
      H1     9.14962   -1.89893   -7.94811
       H    12.09359   -3.32584   -4.97220
       O    12.63701   -2.57695   -5.21839
      H1    12.34841   -2.37393   -6.11994
       H    11.46654   -5.84740   -2.20753
       O    11.30892   -4.93319   -2.42340
      H1    10.99432   -5.00310   -3.33907
       H     5.31046   -2.85631   -5.35677
       O     5.99789   -2.43473   -5.91594
      H1     6.66120   -2.01976   -5.35915
       H    10.19988   -7.00997   -8.29752
       O     9.33189   -7.37757   -8.05143
      H1     8.95594   -7.82944   -8.85826
       H     7.84104   -0.27582   -4.13463
       O     8.12646   -0.98275   -4.77325
      H1     8.56202   -1.65347   -4.24448
       H     6.99512   -0.72690  -10.20082
       O     7.20564   -0.88448  -11.11174
      H1     6.47959   -1.24651  -11.53235
       H    10.63165   -4.37539   -6.11069
       O    11.05645   -4.81423   -5.37290
      H1    10.69219   -5.70514   -5.33750
       H     9.26767   -4.79236  -12.25705
       O     8.90072   -5.30643  -11.49587
      H1     8.24315   -4.79040  -11.11067
       H     7.58352   -5.77979   -4.95871
       O     7.82968   -6.61082   -4.54317
      H1     8.00292   -6.40957   -3.64378
       H     4.67240   -1.63374   -6.85406
       O     4.23148   -1.55685   -7.70261
      H1     3.50418   -0.93831   -7.59844

