63
frame 3 | Written by MDAnalysis XYZWriter (release 2.4.3)
       H    -4.92343   11.32274  -13.68116
       O    -5.50503   11.77333  -13.00871
      H1    -6.15856   11.10028  -12.80261
       H     1.42586   11.01484  -12.96121
       O     2.19152   11.10869  -12.35241
      H1     1.86147   11.69596  -11.63277
       H     1.82385   15.04901  -15.33094
       O     1.74347   15.98301  -15.71407
      H1     1.24796   15.83538  -16.54816
       H     0.79368   14.66900  -19.32463
       O     0.44640   15.03440  -18.51250
      H1    -0.28930   14.48936  -18.17584
       H    -0.06714   13.64406  -12.70229
       O    -0.95303   13.70520  -12.43876
      H1    -0.94841   14.22245  -11.64194
       H    -0.94042    5.98592  -17.72213
       O    -1.32714    6.42195  -16.93711
      H1    -1.85792    7.18525  -17.16999
       H    -0.36087   10.38207  -16.23730
       O    -0.71445   11.14278  -15.68227
      H1    -1.17922   11.64719  -16.34561
       H    -4.23260    8.95286  -13.92693
       O    -4.50722    9.62619  -14.58556
      H1    -5.45829    9.45835  -14.61250
       H     3.51883    7.93660  -18.51939
       O     2.74043    7.50352  -18.07424
      H1     2.39001    8.17983  -17.53058
       H     0.47713    7.30325  -13.44272
       O     0.38902    6.32173  -13.53966
      H1     1.28698    6.05479  -13.91550
       H    -1.98042   13.22961  -17.99517
       O    -1.31687   13.48113  -17.32369
      H1    -1.93587   13.78439  -16.56423
       H     0.03278    7.53790  -16.61676
       O     0.53650    8.37683  -16.54410
      H1     1.09340    8.29328  -15.75876
       H     3.06862    8.87055  -14.59365
       O     2.19794    8.70062  -14.31246
      H1     2.09678    8.70053  -13.37506
       H     3.31008   11.33727  -15.86135
       O     3.38470   12.15145  -15.31245
      H1     3.87937   11.81711  -14.52281
       H    -4.08612   13.84857  -15.12258
       O    -3.15915   13.86027  -15.35847
      H1    -2.75027   13.55081  -14.53023
       H    -1.15707    8.90277  -19.13060
       O    -2.05644    9.15203  -18.95963
      H1    -2.50662    8.64987  -19.67714
       H     1.68896   12.78862  -14.56458
       O     0.87247   13.23836  -14.37924
      H1     0.25588   12.63978  -14.82947
       H    -2.65535    8.34641  -13.19471
       O    -3.26138    7.61158  -13.26551
      H1    -2.97721    7.19940  -14.13122
       H    -1.53663   10.40384  -13.94722
       O    -1.60269   10.14849  -13.00981
      H1    -1.51752   10.96754  -12.47844
       H     0.65033   12.51652  -17.80684
       O     1.51771   12.09589  -18.01863
      H1     1.32830   11.36055  -18.62825
       H    -3.21318    8.81547  -17.49938
       O    -3.67913    8.20221  -16.86129
      H1    -4.09670    8.76783  -16.20777

