63
frame 3 | Written by MDAnalysis XYZWriter (release 2.4.3)
       H   -15.43205   12.94608   18.10108
       O   -15.33136   12.07420   17.66240
      H1   -15.41756   11.41104   18.38188
       H    -7.03030   10.73741   14.41143
       O    -7.39964   11.23947   15.15823
      H1    -7.47098   10.69225   15.95864
       H    -8.96521   14.65121   14.54224
       O    -8.08753   14.32413   14.34190
      H1    -8.23218   13.38506   14.54097
       H    -9.09783   14.29160   17.57767
       O    -9.16409   15.12989   17.15169
      H1    -8.96799   15.77329   17.83087
       H   -14.57736   12.30573   15.78378
       O   -13.96426   12.20946   15.07326
      H1   -13.68439   13.03700   14.77430
       H   -12.78359   14.82137   16.51355
       O   -13.02710   15.21585   15.68678
      H1   -14.00268   15.28786   15.66764
       H    -8.03079   16.07129   19.95256
       O    -7.12160   15.81155   19.87906
      H1    -6.94156   16.20917   19.00686
       H   -11.73173   18.16480   18.29145
       O   -12.34677   17.45222   17.89405
      H1   -13.23505   17.80104   17.71413
       H   -11.70418   10.84613   16.98064
       O   -11.50029   11.64863   16.40367
      H1   -12.31680   11.84885   15.98532
       H   -11.49421   13.46280   12.36405
       O   -12.09885   14.09529   12.72298
      H1   -11.60472   14.44429   13.44026
       H   -11.34198   16.69710   15.22249
       O   -10.42366   16.70906   14.86915
      H1   -10.00314   16.75280   15.74280
       H   -11.49920   13.10767   17.48251
       O   -11.71484   13.93849   17.96005
      H1   -10.97895   14.48963   17.62508
       H    -9.00744   10.10561   14.75239
       O    -9.89221    9.68760   14.78518
      H1   -10.38119   10.38592   15.30105
       H    -7.25774   15.19417   16.94501
       O    -6.33686   15.09083   17.24677
      H1    -5.73253   15.23812   16.49393
       H   -16.60691   14.59017   15.65127
       O   -15.95680   15.14692   16.04407
      H1   -16.45070   15.93911   16.21215
       H    -7.97600   17.72789   14.22540
       O    -7.80019   18.20294   15.00538
      H1    -8.64410   18.71916   15.15607
       H   -14.82573   14.94786   18.98769
       O   -15.57706   14.41078   18.77231
      H1   -15.88269   14.70383   17.89848
       H    -7.72358   17.83391   16.70459
       O    -7.80605   17.96371   17.73786
      H1    -7.01161   18.56343   17.82135
       H   -10.63757   18.07057   13.58667
       O   -10.53812   18.44946   12.69030
      H1   -10.97048   19.31198   12.79171
       H    -9.44404   12.82310   19.59781
       O    -8.66255   12.45383   19.07200
      H1    -8.65040   11.52460   19.31573
       H   -12.59144    9.03897   17.11466
       O   -12.12803    9.45407   17.83553
      H1   -11.62718    8.70461   18.22280

