63
frame 3 | Written by MDAnalysis XYZWriter (release 2.4.3)
       H   -10.81781  -15.92720   -8.06777
       O   -10.39077  -16.36362   -8.81147
      H1    -9.98129  -17.15248   -8.51041
       H   -10.40389  -18.73211   -6.44997
       O   -10.25658  -18.67719   -5.46670
      H1   -11.19645  -18.59060   -5.18495
       H   -10.59166  -15.93970   -3.40681
       O   -10.13333  -15.29189   -4.02853
      H1    -9.50935  -15.91651   -4.46403
       H   -13.56627  -18.35077   -4.60337
       O   -12.61453  -18.61295   -4.45617
      H1   -12.82058  -19.49146   -4.18812
       H   -11.47142  -14.99217  -11.62580
       O   -11.19474  -14.61849  -10.75191
      H1   -10.78266  -15.33862  -10.25077
       H   -14.02804  -17.90815   -8.34756
       O   -14.44322  -17.42713   -7.59456
      H1   -15.34398  -17.20561   -7.91687
       H    -7.06398  -17.25897  -12.03425
       O    -7.03383  -16.29077  -11.99483
      H1    -6.70759  -16.03253  -12.82724
       H   -12.66577  -16.24421  -13.24980
       O   -11.74670  -15.85329  -13.15921
      H1   -11.36935  -15.40856  -13.89942
       H   -10.66967  -13.77862   -7.22002
       O   -10.02321  -13.09210   -7.28034
      H1    -9.80058  -12.87139   -6.36959
       H    -8.91519  -17.60144   -5.71370
       O    -8.27947  -16.86507   -5.48474
      H1    -7.78340  -16.66597   -6.33520
       H    -5.37923  -16.13237   -7.40112
       O    -6.11380  -16.76222   -7.60910
      H1    -6.69782  -16.30143   -8.26341
       H   -10.11812  -19.17690   -9.04563
       O    -9.55290  -18.89398   -8.27514
      H1    -8.65993  -19.23527   -8.46971
       H    -5.98080  -19.26563  -10.84560
       O    -6.66174  -19.13488  -11.54821
      H1    -7.45457  -19.71470  -11.50896
       H    -6.10453  -18.16283   -5.87520
       O    -5.64684  -18.47312   -5.14041
      H1    -6.31743  -18.58666   -4.44246
       H   -14.90960  -19.16606  -10.86990
       O   -15.43676  -19.91319  -11.07301
      H1   -16.33574  -19.57979  -11.25609
       H   -12.79091  -18.95299  -10.27480
       O   -13.57627  -18.43327   -9.97976
      H1   -13.59286  -17.60255  -10.43413
       H    -7.80613  -15.58049  -10.43599
       O    -7.60119  -15.53112   -9.50242
      H1    -8.45368  -15.86685   -9.09164
       H   -10.77882  -17.39606  -12.87003
       O   -10.17724  -18.12683  -12.59392
      H1    -9.32813  -17.67831  -12.64209
       H   -12.61990  -15.33244   -6.29478
       O   -11.67031  -15.34377   -6.55224
      H1   -11.08325  -15.36347   -5.82205
       H    -3.59015  -16.95515  -10.09873
       O    -4.30938  -17.54824   -9.90037
      H1    -4.97546  -17.06036   -9.37492
       H   -13.02777  -15.26378  -10.19723
       O   -13.88063  -15.60930   -9.93188
      H1   -13.72923  -16.04591   -9.06335

