63
frame 0 | Written by MDAnalysis XYZWriter (release 2.4.3)
       H    -9.92012  -16.05290   -3.06312
       O    -9.60970  -15.58645   -3.84832
      H1    -8.90070  -16.17044   -4.20607
       H    -8.32337  -18.80393    1.07948
       O    -8.76828  -19.12864    0.28792
      H1    -9.65102  -19.30556    0.64972
       H    -3.69625  -16.98675   -3.48896
       O    -2.80342  -16.67462   -3.72808
      H1    -2.57688  -17.05540   -4.62237
       H    -9.87110  -14.09649   -7.46125
       O    -9.35316  -13.29489   -7.28289
      H1    -8.64563  -13.65924   -6.70568
       H    -8.33660  -18.08296   -5.49455
       O    -7.70287  -17.34415   -5.27395
      H1    -7.40269  -17.03925   -6.16995
       H    -6.71281  -14.96759   -7.00654
       O    -6.57008  -15.88196   -7.40108
      H1    -6.96605  -15.90638   -8.28490
       H    -9.44886  -18.44099   -1.36062
       O    -9.51351  -18.43297   -2.33442
      H1   -10.39163  -18.19418   -2.57750
       H    -7.04323  -17.19162    2.52156
       O    -6.41909  -16.56742    2.18223
      H1    -6.75049  -16.11789    1.39422
       H    -9.48549  -13.59056   -2.94520
       O    -9.32060  -13.17394   -2.06831
      H1   -10.17813  -13.17688   -1.52256
       H    -6.26111  -12.97495   -6.21770
       O    -7.03893  -13.43598   -5.84689
      H1    -7.06494  -13.46302   -4.87299
       H    -4.92004  -13.96211   -0.59426
       O    -4.61885  -13.51549   -1.37134
      H1    -3.69594  -13.67564   -1.33787
       H    -5.62329  -17.89198   -2.83449
       O    -5.38115  -17.85944   -3.79462
      H1    -6.15769  -17.49432   -4.20722
       H    -8.88988  -12.35468   -5.51289
       O    -9.25189  -11.80184   -4.81527
      H1    -8.49381  -11.63607   -4.27129
       H    -7.44866  -13.68820   -2.44683
       O    -6.89120  -14.04159   -3.10375
      H1    -6.03382  -14.10528   -2.71299
       H    -8.36778  -11.63167   -2.19891
       O    -7.81789  -10.97238   -2.66281
      H1    -7.07901  -10.86190   -2.08273
       H    -7.06297  -15.36290   -0.67650
       O    -6.77575  -14.89034    0.12162
      H1    -7.46926  -14.25217    0.23567
       H    -7.77603  -12.27474    0.98333
       O    -8.41518  -13.00070    1.04387
      H1    -9.11651  -12.80611    0.42337
       H   -10.80194  -12.27423   -3.85186
       O   -11.77160  -12.13140   -3.91480
      H1   -11.80203  -11.33885   -4.43620
       H   -12.57799  -15.03208   -5.54530
       O   -11.83352  -15.73843   -5.48862
      H1   -11.16427  -15.40112   -4.85837
       H    -7.97205  -17.17638   -2.41714
       O    -7.29831  -16.50833   -2.09148
      H1    -7.35366  -15.77950   -2.75195
       H   -12.39769  -17.27688   -2.10537
       O   -12.07197  -16.59666   -2.73602
      H1   -12.46193  -16.83458   -3.60961

