63
frame 3 | Written by MDAnalysis XYZWriter (release 2.4.3)
       H    -1.02419  -15.83124  -10.51186
       O    -1.99074  -15.93717  -10.56541
      H1    -2.38826  -15.04103  -10.61764
       H     1.71197  -12.19315   -6.18593
       O     1.07836  -12.62506   -6.77631
      H1     0.36182  -13.04549   -6.21651
       H    -6.38130  -10.92773  -10.52124
       O    -6.27352   -9.98259  -10.85490
      H1    -5.34371   -9.79941  -10.81131
       H    -5.34850  -14.90262  -11.81294
       O    -4.99199  -14.05329  -12.07975
      H1    -5.77568  -13.48403  -12.08401
       H    -1.08049  -14.62360   -5.60642
       O    -0.71233  -13.83942   -5.10349
      H1    -1.49447  -13.30033   -4.93509
       H    -5.37923  -16.13237   -7.40112
       O    -6.11380  -16.76222   -7.60910
      H1    -6.69782  -16.30143   -8.26341
       H    -2.97212  -11.42652   -3.97952
       O    -3.07378  -12.05559   -4.76670
      H1    -2.69396  -11.71906   -5.59395
       H    -3.79934   -8.95924  -12.23054
       O    -3.69090   -9.04403  -11.26659
      H1    -3.17967   -8.26092  -11.00743
       H    -4.20121  -14.00918   -7.23796
       O    -4.38269  -14.78803   -6.69908
      H1    -4.79521  -14.48540   -5.83278
       H    -3.96453  -13.58565  -10.69335
       O    -3.12004  -13.56710  -10.23726
      H1    -3.14205  -13.08558   -9.45155
       H    -0.97029  -10.88991  -10.77448
       O    -0.03563  -10.77860  -10.42809
      H1     0.31250  -11.69634  -10.45798
       H    -2.59812  -15.53393   -6.70273
       O    -1.73564  -15.90830   -6.62983
      H1    -1.39848  -15.93856   -7.52427
       H    -3.09637  -11.40358   -7.91090
       O    -3.61441  -12.20794   -7.77195
      H1    -4.47168  -11.85253   -7.56955
       H    -0.61917  -10.81451   -7.01934
       O    -1.49958  -10.33031   -7.11088
      H1    -1.56283   -9.46969   -6.60047
       H    -2.64011  -10.59291  -11.38319
       O    -2.28797  -11.51785  -11.59382
      H1    -2.65819  -12.20025  -10.98097
       H    -4.71060  -13.14408   -4.46613
       O    -5.39406  -13.74179   -4.18157
      H1    -5.01678  -13.96657   -3.33940
       H    -1.95580   -7.61068   -5.10359
       O    -2.29903   -8.50185   -5.15726
      H1    -3.22436   -8.49365   -4.78129
       H    -6.84529  -11.11569   -6.96691
       O    -6.39325  -11.92109   -7.32330
      H1    -6.63793  -11.97511   -8.29842
       H    -1.19290   -7.89909   -9.46092
       O    -1.89588   -8.20409   -8.85866
      H1    -1.60161   -9.06678   -8.57344
       H    -7.35214  -13.46264   -9.88708
       O    -7.10676  -12.51355   -9.93477
      H1    -7.90789  -12.07281   -9.65819
       H    -0.97983  -10.84628   -3.28973
       O    -0.54590  -10.34768   -4.02243
      H1    -1.13599   -9.70183   -4.37767

