63
frame 3 | Written by MDAnalysis XYZWriter (release 2.4.3)
       H    -8.19370    7.73539  -18.18674
       O    -8.79289    8.53058  -18.03834
      H1    -9.29196    8.31131  -17.20791
       H   -11.66075   10.32662  -13.72158
       O   -12.19476    9.62916  -13.44121
      H1   -12.40013    9.71132  -12.48643
       H   -12.07995    7.88133  -18.67242
       O   -11.32735    8.00095  -19.26045
      H1   -10.60630    8.25288  -18.67231
       H   -11.29449    6.35949  -19.31276
       O   -11.40082    5.39992  -19.13131
      H1   -11.94742    5.27981  -18.37023
       H    -7.31022   11.22623  -17.13561
       O    -7.89173   10.70542  -16.62218
      H1    -7.97691    9.90494  -17.18701
       H   -13.58774    6.78029  -17.25643
       O   -13.54889    7.60582  -17.79009
      H1   -13.77581    8.34197  -17.14536
       H   -14.57051   10.44464  -19.11137
       O   -15.44814   10.20244  -19.37089
      H1   -15.23101    9.30431  -19.74149
       H   -16.49270   10.48368  -17.94178
       O   -16.99336   10.63496  -17.14878
      H1   -16.95849    9.83521  -16.63783
       H   -12.19146   13.46144  -14.30584
       O   -13.11923   13.13684  -14.49179
      H1   -13.21088   13.01699  -15.45256
       H   -11.46522   11.75576  -16.57170
       O   -11.06840   10.85516  -16.60898
      H1   -10.25152   10.93453  -16.05799
       H   -13.05316   16.10415  -20.13511
       O   -13.25936   15.60753  -19.32518
      H1   -13.79688   16.27195  -18.85084
       H   -11.93014   16.00110  -18.14607
       O   -11.37511   16.33875  -17.41674
      H1   -10.86056   15.59626  -17.10218
       H   -11.63696   12.16459  -18.89778
       O   -11.13771   13.01480  -18.89309
      H1   -11.34557   13.44283  -19.79318
       H   -17.10331    8.25579  -15.02705
       O   -16.34960    8.16561  -15.59101
      H1   -15.53571    8.34289  -15.01016
       H   -12.00215   10.31941  -18.59888
       O   -12.62536   10.72281  -19.19342
      H1   -12.62707   10.15417  -19.99590
       H   -15.20088   10.95527  -14.02639
       O   -16.14347   11.03961  -13.74291
      H1   -16.61967   10.59709  -14.49067
       H    -9.26849    7.75443  -14.97509
       O    -9.82123    7.40621  -15.69975
      H1   -10.61593    7.11879  -15.34099
       H   -12.72383   12.96222  -17.80319
       O   -13.43034   12.79190  -17.16292
      H1   -14.16385   13.30534  -17.56485
       H   -13.83065   10.89340  -16.49011
       O   -14.09942   10.06512  -16.00009
      H1   -13.26207    9.79721  -15.54612
       H    -8.82319   11.61474  -15.36083
       O    -9.27152   11.99372  -14.61259
      H1    -8.74315   11.69822  -13.81020
       H   -16.09520   14.46992  -18.67328
       O   -15.72684   14.33289  -17.75875
      H1   -16.35540   13.83320  -17.25099

