63
frame 3 | Written by MDAnalysis XYZWriter (release 2.4.3)
       H    -8.04641    1.96662   -4.34045
       O    -7.16080    2.13087   -3.99462
      H1    -7.13831    1.57227   -3.22569
       H   -10.05739   -1.94896    2.27228
       O    -9.38203   -2.35389    2.75092
      H1    -9.11825   -1.81938    3.52075
       H    -6.76170    5.76152    0.68245
       O    -7.27218    5.77710   -0.13869
      H1    -7.85912    4.99947    0.02593
       H   -11.30144    1.93377    0.94968
       O   -12.24242    2.24018    0.83390
      H1   -12.56924    1.74175    0.06612
       H   -11.81046   -0.81100    4.21954
       O   -11.49549   -0.03182    3.69192
      H1   -10.56219   -0.05224    3.94772
       H    -5.56687    2.15139    0.45856
       O    -5.47911    1.27679    0.89288
      H1    -5.35341    0.44999    0.26975
       H    -7.74261    2.33815    2.94029
       O    -7.69568    1.42986    2.60451
      H1    -6.89503    1.30761    2.12382
       H    -4.82601   -1.73026   -0.74630
       O    -4.91741   -1.30747    0.09678
      H1    -5.85065   -1.51208    0.44701
       H    -7.23300   -0.15019   -2.00812
       O    -7.14418    0.74100   -1.70427
      H1    -7.82433    0.85321   -1.01128
       H   -11.07519    1.03846   -1.55924
       O   -11.94328    1.33179   -1.76662
      H1   -11.92756    2.08099   -2.38580
       H    -8.48345   -0.07790    5.57745
       O    -8.63920   -0.24270    4.62035
      H1    -8.30422    0.56043    4.12766
       H   -10.09011    5.56810    1.81667
       O   -10.50596    4.89368    1.25143
      H1   -10.49491    4.17623    1.87507
       H   -11.99620   -2.98613    1.18961
       O   -11.88120   -2.03237    1.14664
      H1   -12.66490   -1.66369    1.57777
       H    -8.22544   -1.99955    0.08814
       O    -7.70086   -1.59695    0.80111
      H1    -8.18170   -1.85931    1.61759
       H    -7.21278    4.87561   -2.70421
       O    -8.05834    4.49025   -2.86830
      H1    -7.94726    3.67423   -3.35484
       H   -12.99349    3.64193   -0.13176
       O   -13.43762    4.29740   -0.71408
      H1   -14.11108    4.74162   -0.17615
       H    -8.76431    4.59566    3.33585
       O    -9.15845    3.73903    3.49250
      H1    -8.97744    3.64957    4.45638
       H    -5.80530    4.56081   -0.62029
       O    -5.24834    3.72966   -0.58049
      H1    -4.32905    4.04083   -0.53129
       H    -9.78010   -2.27256   -0.89419
       O    -9.05164   -2.79503   -1.17937
      H1    -9.06992   -3.51237   -0.59350
       H    -9.41694    4.17618    0.03253
       O    -8.72673    3.57117   -0.30506
      H1    -8.62726    3.87649   -1.22189
       H    -9.14240    0.37002    0.74286
       O    -9.50532    0.95150    0.06698
      H1    -9.17264    1.82711    0.22741

