63
frame 0 | Written by MDAnalysis XYZWriter (release 2.4.3)
       H     4.85110   13.80754   14.23763
       O     5.61674   13.27890   13.89164
      H1     5.43848   13.01815   12.88800
       H     0.57298    9.22954    6.16440
       O     0.50491    9.42406    7.10978
      H1     1.22246    9.97638    7.37199
       H     0.52431    6.62760   10.13058
       O     0.44774    6.37043   11.03513
      H1     1.15435    6.86634   11.46490
       H    -0.62742    8.40181   12.24982
       O    -1.45773    8.82207   12.41647
      H1    -1.46113    9.68425   12.02480
       H     3.16297   11.37174    7.46420
       O     2.35243   11.04684    7.80698
      H1     2.47543   11.02363    8.78551
       H    -2.09661   12.30769   11.33292
       O    -1.55138   13.08242   11.13124
      H1    -1.60222   13.11447   10.17666
       H     1.49630   13.23546    5.98895
       O     1.76324   13.45403    6.88936
      H1     1.97788   12.57396    7.26320
       H     5.06989   13.62584   10.82745
       O     5.30452   12.80635   11.25132
      H1     4.49848   12.27594   11.11953
       H    -0.31935   14.62194   12.27236
       O     0.59554   14.81435   12.44685
      H1     0.84416   13.97402   12.86449
       H     1.77319   14.28928   11.26505
       O     2.49518   14.07930   10.64274
      H1     2.45302   14.75975    9.96190
       H     7.14008   11.76558   10.83866
       O     7.64662   10.94118   10.89937
      H1     8.51463   11.24808   11.05119
       H     2.39161    9.34733   13.03004
       O     2.71593   10.25444   13.09791
      H1     1.88571   10.83780   13.16348
       H    -0.19823   12.23163   13.35923
       O     0.38059   11.88442   12.71387
      H1    -0.07587   12.18497   11.90209
       H     4.98148   11.70570    6.27467
       O     4.92845   12.15456    7.14924
      H1     5.73905   11.89197    7.60933
       H     5.92107   15.44212    9.05155
       O     5.53632   15.36384    9.91709
      H1     4.56241   15.21907    9.75621
       H     4.25532    6.80059   11.91379
       O     4.43126    7.65224   11.39921
      H1     5.39366    7.65640   11.28428
       H     3.40244    5.77226    8.98760
       O     3.77688    6.69505    8.93331
      H1     3.98455    6.91224    9.86211
       H     1.65666    7.18548   13.88268
       O     1.14294    7.92703   13.43867
      H1     0.50707    8.25776   14.09188
       H     7.12224    8.37982   12.08997
       O     6.95215    8.33017   11.14852
      H1     6.94412    9.25349   11.03084
       H     4.50347   10.22520   13.73134
       O     5.33824   10.10010   14.28266
      H1     5.59198   11.02443   14.50830
       H     2.47250   12.34633   10.72089
       O     2.88401   11.44960   10.57646
      H1     2.88676   10.97839   11.46712

