63
frame 3 | Written by MDAnalysis XYZWriter (release 2.4.3)
       H     4.65429  -15.28437   19.90628
       O     5.19974  -15.94478   19.44380
      H1     5.68263  -15.41869   18.77686
       H    -2.58334  -12.96355   18.80007
       O    -3.49524  -12.91050   18.58496
      H1    -3.46627  -12.40836   17.77102
       H    -1.01664  -16.56131   18.46874
       O    -1.79499  -17.17333   18.18532
      H1    -1.77292  -17.41467   17.27166
       H    -0.10180  -13.79627   19.11386
       O    -0.28044  -12.91060   18.86090
      H1     0.36676  -12.73548   18.14568
       H    -2.77566   -9.18498   16.49930
       O    -2.93142   -9.45788   17.41085
      H1    -2.11481   -9.30772   17.93960
       H     0.87827  -11.01264   15.95117
       O     0.13139  -10.92056   15.31562
      H1    -0.42322  -11.69176   15.49007
       H     7.03256  -11.87858   19.23566
       O     6.62947  -11.79341   18.39510
      H1     7.43112  -11.52578   17.87839
       H    -1.67581   -8.25363   14.32690
       O    -1.19929   -8.37874   15.18195
      H1    -0.67682   -9.15070   14.97573
       H     4.76506   -9.74818   14.69044
       O     5.02829   -9.48980   13.80193
      H1     4.67748  -10.14945   13.15240
       H     0.65060  -11.58412   13.81522
       O     0.93101  -12.07645   13.05902
      H1     1.22973  -12.88513   13.52864
       H     0.96230  -15.71088   19.94984
       O     0.42648  -15.57373   19.13112
      H1     0.98886  -15.62399   18.34378
       H     3.31677   -9.99813   16.30592
       O     4.15732  -10.44150   16.10000
      H1     4.47887  -10.75535   16.97900
       H     5.82290   -8.92570   19.73096
       O     5.78614   -9.23852   18.81150
      H1     6.09176  -10.15163   18.78199
       H     4.56727   -7.89771   18.15395
       O     3.86202   -7.27685   18.01521
      H1     4.26967   -6.45949   17.60782
       H     2.45538  -15.06757   13.72033
       O     1.57419  -14.75087   13.94867
      H1     0.87071  -15.20394   13.37610
       H     1.91721  -16.10625   16.51854
       O     1.73663  -15.13077   16.55301
      H1     1.51664  -14.89224   15.59188
       H    -0.34735   -7.42311   18.01297
       O    -0.49298   -8.16918   18.65842
      H1     0.38012   -8.53417   18.78184
       H     4.63099  -12.86154   15.09833
       O     3.92500  -13.44562   15.39090
      H1     3.39012  -12.91384   16.01010
       H     6.41691  -13.48367   17.83567
       O     6.28744  -14.38463   17.46729
      H1     5.56902  -14.24884   16.80189
       H     1.84113   -8.81752   15.50319
       O     2.14234   -8.83959   16.47178
      H1     2.71852   -8.11121   16.53674
       H     2.02556  -13.45902   17.10283
       O     2.07797  -12.44506   17.21389
      H1     2.20656  -12.32749   18.20015

