63
frame 3 | Written by MDAnalysis XYZWriter (release 2.4.3)
       H     9.73982  -15.59917  -17.20230
       O    10.55127  -15.67289  -16.65074
      H1    11.23526  -15.30306  -17.27324
       H    12.67328  -17.73314  -17.08380
       O    12.74185  -17.42231  -16.21876
      H1    11.89360  -16.93735  -16.06394
       H    16.38928  -13.62574  -15.19103
       O    15.45646  -13.66363  -14.92175
      H1    15.24915  -14.56784  -14.73882
       H    10.08190  -13.01397  -18.23870
       O     9.62471  -13.41152  -18.96664
      H1     8.70638  -13.14717  -18.82015
       H    13.86037  -16.57285  -15.11449
       O    14.57064  -16.23381  -14.55673
      H1    14.30391  -16.52175  -13.61029
       H     8.98216  -10.52554  -14.59492
       O     9.42029   -9.94918  -15.21693
      H1     9.00823   -9.98227  -16.10078
       H    14.21486  -12.10598  -12.21864
       O    14.60963  -12.17382  -11.33073
      H1    15.56136  -12.00428  -11.34041
       H    11.80302   -8.56824  -17.44014
       O    12.46516   -9.29929  -17.51387
      H1    12.72631   -9.25761  -18.41329
       H    12.41507  -14.18525  -18.92774
       O    12.51022  -15.07207  -18.56138
      H1    13.43317  -15.16627  -18.27489
       H    10.15296  -10.86862  -10.30263
       O    10.64132  -10.40737  -11.03807
      H1    11.05493  -11.11702  -11.56484
       H    14.52141   -9.44294  -15.38186
       O    14.42953   -9.79946  -14.50274
      H1    13.87809  -10.58823  -14.63085
       H    12.37923  -12.23596  -14.83882
       O    13.01113  -12.45749  -14.10909
      H1    13.75154  -12.69366  -14.67612
       H    13.33731   -6.91588  -12.79751
       O    12.71031   -7.65081  -12.87285
      H1    13.13293   -8.32678  -13.41966
       H    10.09815  -14.65301  -12.93902
       O     9.60382  -15.11292  -13.69715
      H1    10.16740  -14.98555  -14.43588
       H    11.29398   -7.58150  -13.83516
       O    10.47413   -7.60967  -14.40499
      H1    10.07465   -8.46975  -14.18614
       H    14.21408   -8.54709  -17.32462
       O    15.11336   -8.64726  -16.97571
      H1    15.34236   -7.69992  -16.84049
       H    11.73440  -13.97874  -11.49227
       O    11.29474  -13.45791  -12.16871
      H1    11.89746  -13.52173  -12.92318
       H    10.76334  -11.02822  -15.91728
       O    11.37342  -11.61857  -16.39090
      H1    11.85605  -10.97416  -16.94462
       H     8.20911   -9.79038  -12.46713
       O     8.13802  -10.66183  -12.89322
      H1     8.53595  -11.26170  -12.27902
       H    15.26841  -15.52423  -16.74479
       O    15.32127  -15.88787  -17.63064
      H1    16.16896  -16.34557  -17.69600
       H    16.70609  -10.84589  -12.47509
       O    16.39589   -9.98832  -12.13572
      H1    15.81229   -9.65486  -12.81165

