63
frame 0 | Written by MDAnalysis XYZWriter (release 2.4.3)
       H    -4.83495   18.66191    5.15821
       O    -5.72164   18.45268    4.82866
      H1    -5.57150   18.08064    3.92557
       H    -7.98969   16.73037    4.70319
       O    -8.75701   16.75159    4.13872
      H1    -8.77416   15.92494    3.61729
       H    -8.57629   19.71096    9.30964
       O    -8.51515   19.14091   10.09222
      H1    -7.59153   19.27424   10.36615
       H   -11.01769   16.62754    9.46773
       O   -10.41792   17.02495    8.84218
      H1    -9.55903   17.07034    9.31356
       H    -9.01682   13.26784    7.20109
       O    -8.68774   14.10096    7.52878
      H1    -9.09034   14.73148    6.92293
       H   -13.04925   15.51270    4.31937
       O   -12.60988   16.36405    4.16480
      H1   -11.83732   16.34076    4.72611
       H    -9.01878   18.94588    6.23966
       O    -8.15183   18.95902    6.54383
      H1    -7.52470   19.18814    5.80041
       H   -11.35769   18.96044    0.08188
       O   -11.41716   19.76232    0.59838
      H1   -11.46973   19.40292    1.49728
       H   -13.98619   18.92791    4.15642
       O   -13.46555   19.58813    4.69268
      H1   -13.44244   20.29820    4.06224
       H    -9.89497   18.29765    3.15729
       O   -10.41383   19.07529    3.41376
      H1   -10.43985   18.88640    4.35708
       H   -10.24742   16.34266    7.07482
       O   -10.24922   15.82325    6.22746
      H1    -9.86436   16.38004    5.55564
       H    -5.52826   19.81007   11.27437
       O    -5.66194   19.68244   10.35663
      H1    -4.94657   19.14750   10.04793
       H   -11.71949   18.42220    5.42819
       O   -11.01683   18.77107    5.98807
      H1   -11.47967   19.36946    6.59912
       H    -9.29566   18.17179   11.38366
       O    -9.49160   17.46109   12.03812
      H1   -10.39451   17.49093   12.20280
       H    -6.76553   17.57689    1.68908
       O    -5.92157   17.56118    2.25409
      H1    -5.12798   17.81886    1.73673
       H   -11.19345   18.79779    8.72317
       O   -11.52840   19.67820    8.77627
      H1   -10.70463   20.24340    8.92618
       H    -3.90079   17.35427    8.96977
       O    -4.57799   17.93303    8.56361
      H1    -4.32052   18.03392    7.65860
       H    -6.12761   17.02490    8.77659
       O    -7.06206   16.76089    8.80529
      H1    -6.94446   15.92033    9.31758
       H    -6.12611   17.11196    5.93796
       O    -6.58235   16.27436    6.17355
      H1    -6.85057   16.28764    7.10563
       H   -12.80100   14.82387    7.24446
       O   -12.47368   14.21124    6.60013
      H1   -11.69661   14.62628    6.22739
       H    -4.95334   15.71000    5.83952
       O    -4.00544   15.70462    5.86884
      H1    -3.60778   15.19973    5.08279

