63
frame 3 | Written by MDAnalysis XYZWriter (release 2.4.3)
       H     9.56730   14.60248  -13.43495
       O     9.21912   15.18269  -14.11034
      H1     8.82674   14.58014  -14.78384
       H     7.92983   15.36108  -12.58202
       O     7.07872   15.14749  -12.15115
      H1     6.89929   15.89379  -11.54190
       H    13.43010   12.47778  -11.43358
       O    13.95217   12.95101  -12.12969
      H1    13.68811   13.86858  -12.05297
       H    12.92317   15.98018   -8.76429
       O    13.36553   15.68466   -9.54996
      H1    12.98151   15.92360  -10.39453
       H    10.57364   13.49965  -11.26917
       O    10.26027   13.64347  -12.14970
      H1    10.10087   12.76952  -12.56083
       H    10.36807   18.23567  -14.70663
       O    10.87634   17.38987  -14.97893
      H1    10.24452   16.72682  -14.65217
       H    11.40333   16.74015   -6.54796
       O    12.35120   16.47320   -6.72972
      H1    12.34335   15.49222   -6.66356
       H     9.39929   14.86571   -8.10323
       O     9.09983   15.74910   -8.09436
      H1     9.54911   16.29953   -8.77152
       H    15.99022   18.14750  -11.98710
       O    15.81586   19.09600  -11.94848
      H1    14.86091   19.12804  -11.81053
       H     6.03854   16.11007   -8.02520
       O     6.45552   15.76452   -8.80278
      H1     7.36096   15.60950   -8.45517
       H    16.37306   18.65465   -9.94000
       O    16.75859   18.94402   -9.04526
      H1    16.91969   18.12656   -8.52807
       H    12.84271   19.88418  -10.56045
       O    13.24032   19.29180  -11.22489
      H1    12.93296   19.49656  -12.12647
       H     6.13104   17.11500  -10.01894
       O     6.48254   17.83138  -10.61826
      H1     5.66720   18.29255  -10.82402
       H     8.24077   18.82257   -7.25014
       O     8.31935   18.01810   -6.70061
      H1     8.57007   17.20449   -7.15867
       H    15.41308   15.51422   -9.72515
       O    16.25085   15.12107   -9.68073
      H1    16.55849   15.45254   -8.82164
       H    13.54065   19.32257  -14.45715
       O    12.66378   19.35533  -13.95924
      H1    12.16216   18.50391  -14.20279
       H    13.05458   19.42771   -5.34737
       O    13.70941   18.73974   -5.20484
      H1    13.39569   17.85852   -5.45527
       H    11.47034   17.82307  -10.06469
       O    10.62474   17.59734   -9.63028
      H1    10.07780   18.29213  -10.04570
       H    10.40189   18.05381   -4.04139
       O    10.22877   17.59037   -4.85243
      H1     9.49908   18.00460   -5.41232
       H    11.75449   15.09776  -12.49601
       O    12.62536   15.38696  -12.30949
      H1    13.02796   15.54701  -13.18832
       H     9.17043   19.90304  -12.62329
       O     8.77474   19.76783  -11.71794
      H1     8.21960   19.00180  -11.83623

