63
frame 0 | Written by MDAnalysis XYZWriter (release 2.4.3)
       H    17.36499   -1.50474   11.88717
       O    17.28384   -2.02809   12.68453
      H1    16.36536   -2.01196   12.91221
       H    16.77435   -2.90800   15.91399
       O    16.27104   -2.19564   15.55794
      H1    15.34859   -2.40826   15.77638
       H    15.54599    0.40677   17.43629
       O    16.20891    0.47986   16.71355
      H1    16.20479   -0.38238   16.25201
       H    14.07006   -7.98516   11.40223
       O    13.45323   -8.14476   10.66594
      H1    13.79824   -7.57357    9.98407
       H    12.17167    0.60930   13.35501
       O    12.72109   -0.21242   13.66247
      H1    13.26289   -0.35208   12.82939
       H    14.96996    0.17551   10.97903
       O    14.45030   -0.52738   11.45696
      H1    14.30866   -1.25243   10.83734
       H    14.88895   -2.27733    8.41262
       O    14.80134   -2.59929    9.32140
      H1    15.50313   -3.23404    9.44987
       H    12.89280   -7.31846   15.12694
       O    12.26803   -6.58838   15.19137
      H1    11.55742   -6.99712   15.62155
       H    12.07830   -4.70334   13.88097
       O    11.92981   -3.74872   13.97943
      H1    12.08349   -3.31523   13.11285
       H    13.21421   -3.18869   14.90621
       O    13.68132   -2.72789   15.61924
      H1    12.96886   -2.36484   16.11839
       H    14.25033   -9.00176   15.69169
       O    13.92619   -8.74266   14.83189
      H1    13.53241   -9.58217   14.51729
       H    15.91640   -5.24383    9.13655
       O    16.68083   -4.83199    9.51515
      H1    17.12383   -5.58120    9.90808
       H    14.63988   -7.56152   13.57645
       O    15.14508   -7.50443   12.70445
      H1    15.53050   -6.59743   12.69344
       H    12.29253   -5.20453   17.65970
       O    13.04699   -4.60779   17.64415
      H1    13.04212   -4.09707   16.84352
       H    16.26803   -4.59964   17.78962
       O    15.61282   -4.41257   18.49361
      H1    14.72890   -4.66811   18.15285
       H    17.97507   -9.00452   13.99506
       O    17.94293   -9.86783   13.52530
      H1    17.33394   -9.72070   12.81799
       H    17.75223   -5.41983   15.96573
       O    17.63447   -4.55251   16.42026
      H1    18.50854   -4.14220   16.31645
       H    18.42553   -7.24976   11.29889
       O    18.28492   -6.33897   11.59720
      H1    17.87271   -6.52280   12.46766
       H    18.71905   -6.48108   14.62827
       O    18.02629   -6.83868   15.20371
      H1    18.41008   -7.33453   15.91573
       H    19.39963   -0.56872   14.34965
       O    19.43985   -1.47881   14.11506
      H1    18.49161   -1.69315   13.74093
       H    16.17876   -4.56524   13.89194
       O    16.16767   -4.72319   12.93379
      H1    16.92054   -4.24882   12.55017

