63
frame 4 | Written by MDAnalysis XYZWriter (release 2.4.3)
       H   -15.61913   -5.24817   10.53208
       O   -16.10422   -6.12107   10.40799
      H1   -16.89812   -5.74368    9.89889
       H   -17.01154   -4.34889   13.02855
       O   -16.45436   -3.61404   13.29409
      H1   -16.70125   -3.52281   14.23370
       H   -13.95667   -0.68782   14.88599
       O   -13.18199   -0.93147   14.46374
      H1   -13.36092   -1.50716   13.70523
       H   -13.44392   -7.65160    8.57038
       O   -14.32828   -8.01602    8.83190
      H1   -14.85458   -7.23854    9.01704
       H   -16.68972   -1.88353   12.56400
       O   -17.15099   -1.11083   12.23995
      H1   -18.01458   -1.44106   11.96573
       H   -16.98634   -7.50165   11.73871
       O   -17.72971   -8.13560   11.84430
      H1   -18.23991   -8.11612   11.03674
       H   -17.07182   -8.46588   13.85343
       O   -16.95777   -8.88882   14.69449
      H1   -16.14485   -9.39178   14.61988
       H   -14.06079   -2.99140    9.25261
       O   -14.79876   -3.61574    9.33905
      H1   -15.46610   -2.95069    9.57279
       H   -17.57874   -5.94464   14.10209
       O   -18.39799   -5.65802   13.69865
      H1   -18.63499   -6.23899   12.96029
       H   -18.03585   -5.64986   18.11705
       O   -17.16057   -5.16028   17.99590
      H1   -16.82945   -4.96813   18.88195
       H   -17.11183   -0.67975   13.86226
       O   -16.81118   -0.59510   14.81046
      H1   -16.98207   -1.47704   15.20836
       H   -13.03570   -7.49061   12.48656
       O   -13.72580   -7.54141   13.15177
      H1   -13.86540   -6.63527   13.34288
       H   -14.49215   -0.93637   11.17642
       O   -15.11036   -0.35750   10.68447
      H1   -15.93583   -0.54543   11.17302
       H   -13.51044   -6.20949   16.93249
       O   -13.90743   -5.55907   16.39587
      H1   -14.79590   -5.67527   16.09830
       H   -16.45569   -7.36346   15.37833
       O   -16.36393   -6.39671   15.53971
      H1   -16.71520   -6.21882   16.37210
       H   -13.77289   -2.90742   12.14997
       O   -13.40474   -2.03318   12.06532
      H1   -12.47970   -2.28712   11.81705
       H   -15.94659   -2.86786   16.61975
       O   -16.77379   -2.88536   16.02920
      H1   -17.46069   -3.27483   16.54469
       H   -18.61656   -3.86476    9.72095
       O   -17.91924   -4.38501    9.27012
      H1   -17.45696   -3.65942    8.78270
       H   -11.61525   -6.66565   13.54616
       O   -11.46109   -5.90273   12.98264
      H1   -12.25884   -5.31122   13.16425
       H   -14.15801   -3.86606   17.17821
       O   -14.47232   -3.02163   17.53643
      H1   -13.77093   -2.39319   17.53777
       H   -13.73888   -4.71858   14.74323
       O   -14.01532   -4.58312   13.81250
      H1   -14.84445   -4.11303   13.82819

