63
frame 4 | Written by MDAnalysis XYZWriter (release 2.4.3)
       H    16.29141   -1.04432   12.89210
       O    16.09719   -1.66602   13.64086
      H1    15.58241   -1.05340   14.25362
       H    19.35335    0.56544    9.96939
       O    18.67723    0.96203   10.52004
      H1    19.04296    1.34301   11.29860
       H    17.40016    3.99726    6.00461
       O    17.31795    3.46117    6.76700
      H1    16.35429    3.36515    6.84458
       H    16.67277    5.82897   11.38251
       O    15.99477    6.51973   11.06158
      H1    15.10800    6.31901   11.44305
       H    18.52131    4.31599   10.61446
       O    18.33860    4.98793   11.35096
      H1    18.37290    4.37194   12.12588
       H    18.74965   -4.67806   11.51413
       O    19.07064   -3.91686   11.07258
      H1    19.34082   -3.25133   11.69032
       H    18.46404    2.14173   13.72792
       O    18.87137    2.43353   12.90587
      H1    19.60189    2.97249   13.18160
       H    19.01959    7.00133    8.35973
       O    18.89807    6.15556    7.75943
      H1    18.61458    5.31401    8.17453
       H    18.52607   -4.08105    6.47584
       O    18.42740   -3.14313    6.50877
      H1    18.20047   -2.96031    7.43873
       H    14.46319   -1.34002    8.86257
       O    15.07063   -1.55948    9.58830
      H1    15.69905   -2.16214    9.11110
       H    14.83649    3.38657   13.22749
       O    14.03413    3.66834   13.70161
      H1    14.22481    3.77351   14.64422
       H    18.54083    2.47868    9.66010
       O    18.58848    3.25625    9.10214
      H1    17.80042    3.31890    8.51040
       H    17.25238    0.01061    7.21106
       O    16.91705    0.24731    8.09466
      H1    16.57257   -0.55472    8.52407
       H    17.00915   -3.97905    9.07090
       O    17.43066   -3.11950    9.02324
      H1    18.04523   -3.28924    9.76735
       H    16.00685   -0.60790   10.82155
       O    16.37588   -0.08799   11.51077
      H1    17.15516    0.39521   11.17321
       H    19.13444    0.34535    6.18119
       O    18.33137    0.69729    5.79001
      H1    18.19134    1.52499    6.29923
       H    15.35795    3.26514   10.75112
       O    15.58286    2.80942   11.56626
      H1    15.62214    1.92193   11.28110
       H    15.63202    1.19314    6.13847
       O    14.96688    1.07471    5.41338
      H1    14.82152    2.00525    5.33142
       H    19.08743   -0.90115   11.17194
       O    19.43104   -1.40857   11.87514
      H1    19.19817   -1.00671   12.72370
       H    19.14876    0.38699   14.47246
       O    18.73805   -0.45996   14.26329
      H1    17.74677   -0.43753   14.33519
       H    18.80590    2.21049   15.87825
       O    17.91650    1.93947   15.63092
      H1    17.24528    2.61341   15.95103

