63
frame 5 | Written by MDAnalysis XYZWriter (release 2.4.3)
       H    18.84758    3.42825   -6.23438
       O    19.25797    3.45216   -5.32182
      H1    19.82731    2.68630   -5.30720
       H    16.32529    9.53190   -6.63553
       O    15.85490   10.24099   -7.11138
      H1    15.20391   10.58757   -6.49094
       H    18.72771    5.88417   -9.87135
       O    19.03854    6.75399   -9.67669
      H1    18.96123    7.20955  -10.58894
       H    15.07286   10.04108   -8.66326
       O    14.98889    9.79834   -9.59650
      H1    14.13086   10.17154   -9.89677
       H    16.45510   11.11752   -3.90003
       O    15.72201   10.54936   -4.21917
      H1    14.94038   10.60515   -3.63050
       H    19.19182   11.32061   -8.15023
       O    19.73409   10.50182   -8.27890
      H1    19.20349   10.14948   -9.01924
       H    16.14971    6.80685   -5.32494
       O    15.65399    6.55058   -4.54873
      H1    15.48209    5.60241   -4.43905
       H    17.98611   12.79879   -6.42469
       O    17.54520   12.45400   -7.16312
      H1    17.08328   11.65177   -6.93243
       H    19.07775    4.10526  -11.10540
       O    18.36730    4.08400  -10.46452
      H1    17.76163    3.50779  -10.93968
       H    17.54219    5.44727   -2.50589
       O    17.99537    6.28062   -2.33864
      H1    17.72651    6.72643   -3.13657
       H    15.48973    8.03876  -11.51496
       O    15.40818    7.88472  -12.45607
      H1    16.13597    8.37058  -12.89511
       H    11.36970    6.27432   -9.85035
       O    12.12641    6.85646  -10.00359
      H1    12.68455    7.09173   -9.23491
       H    17.12103    9.42556  -10.13551
       O    18.01547    9.68921  -10.33319
      H1    17.87352   10.38473  -10.94983
       H    16.94607    7.25879   -7.38671
       O    17.13230    7.71364   -6.56695
      H1    18.07811    7.72135   -6.50772
       H    18.47099    9.38346   -3.32406
       O    17.95761    8.86260   -3.99846
      H1    17.16812    9.37865   -4.08786
       H    14.33183    3.75601   -7.63397
       O    15.01661    3.54440   -7.08380
      H1    15.13556    2.59733   -7.24572
       H    16.73609    3.70948   -7.89112
       O    17.63646    3.45758   -7.89718
      H1    17.79461    3.46613   -8.88120
       H    15.47719    5.62153  -11.96741
       O    15.36444    5.02985  -11.16558
      H1    14.36390    4.92234  -11.10224
       H    14.30173    7.71588   -4.59588
       O    13.57026    8.36382   -4.73274
      H1    13.68439    8.99475   -3.97282
       H    13.55235    7.90099   -7.38914
       O    13.56400    6.97804   -7.57842
      H1    14.50901    6.72255   -7.53302
       H    17.23237    6.69833   -9.29667
       O    16.30339    6.64735   -9.02617
      H1    15.88905    6.20010   -9.75820

