63
frame 4 | Written by MDAnalysis XYZWriter (release 2.4.3)
       H   -15.71723   12.72374   18.70119
       O   -15.69070   11.99920   18.06622
      H1   -15.31040   11.21591   18.49841
       H   -14.96333   12.79667   11.74856
       O   -15.74315   12.26322   11.93917
      H1   -16.32044   12.40520   11.15802
       H   -15.11120   12.21214   16.30931
       O   -15.16021   12.09339   15.32022
      H1   -14.86184   12.93286   14.91196
       H   -13.76976   14.46014   16.39970
       O   -13.94507   14.83491   15.55555
      H1   -14.26156   15.74792   15.54122
       H   -17.15074   16.63956   10.39380
       O   -17.76557   17.38474   10.11638
      H1   -18.62905   17.02546    9.79031
       H   -19.17153   17.78028   17.33760
       O   -18.89452   17.66965   16.43480
      H1   -19.60549   17.36180   15.87976
       H   -11.74328   10.72171   15.79198
       O   -12.47672   11.02585   16.27338
      H1   -13.11800   10.31904   16.12889
       H   -15.18305   10.59961   14.29396
       O   -14.95038    9.88685   13.67321
      H1   -15.76095    9.39368   13.84703
       H   -11.76374   13.51120   13.90524
       O   -12.12530   14.37410   13.66477
      H1   -12.63614   14.53567   14.48531
       H   -17.36418    8.94279   15.47151
       O   -17.96776    9.65113   15.24905
      H1   -18.03096   10.10947   16.12005
       H   -14.03935   10.73589   11.60753
       O   -13.64376   10.47737   10.75592
      H1   -14.18568   10.91664   10.11761
       H   -16.99135   12.97040   14.27602
       O   -17.50683   13.58149   14.83881
      H1   -17.83960   12.95019   15.54908
       H   -12.54898   12.49516   16.99440
       O   -12.69700   13.35277   17.46319
      H1   -11.80474   13.78324   17.38070
       H   -17.29456   14.51849   16.47898
       O   -17.55845   15.05258   17.27151
      H1   -17.95700   15.77082   16.77007
       H   -13.02092   13.97119   10.76244
       O   -13.67654   14.42555   11.31617
      H1   -13.31724   14.54467   12.19287
       H   -18.71106   14.51697   13.91862
       O   -19.01593   14.95047   13.04370
      H1   -18.56587   15.84418   13.05935
       H   -17.32929   11.99274   17.38322
       O   -18.18882   11.73218   16.99199
      H1   -18.85059   12.26283   17.49891
       H   -15.14766   14.85267   19.56302
       O   -15.98001   14.33616   19.35184
      H1   -16.52620   14.81168   18.68850
       H   -17.14940   14.31524   11.11418
       O   -16.51162   14.98458   10.78696
      H1   -15.60056   14.81616   11.07982
       H   -18.09332   17.60759   11.92690
       O   -18.30766   17.72343   12.86999
      H1   -17.49541   18.23436   13.19613
       H   -19.07271   12.47001   10.93944
       O   -18.79139   13.39529   10.78874
      H1   -18.97672   13.88555   11.60050

