63
frame 4 | Written by MDAnalysis XYZWriter (release 2.4.3)
       H    -2.36197   -8.51158    0.41163
       O    -2.65692   -9.21369    0.99510
      H1    -2.90840   -8.74030    1.80919
       H    -7.14297   -8.75838    2.23561
       O    -7.78680   -8.18438    1.80988
      H1    -7.76962   -8.48178    0.88091
       H    -6.99258  -12.15876    6.02535
       O    -6.94204  -11.86315    5.13066
      H1    -7.74348  -11.98517    4.58231
       H    -9.01221  -13.31834    3.58430
       O    -8.98722  -12.49272    3.11409
      H1    -8.53326  -12.44132    2.26583
       H    -3.91604  -10.82314    6.49768
       O    -3.68827  -10.02562    5.97266
      H1    -3.30560  -10.31588    5.16370
       H    -7.21208  -16.73741    2.53432
       O    -6.52738  -16.17662    2.13164
      H1    -7.05377  -15.67600    1.53306
       H    -4.93466  -11.61969    1.11264
       O    -4.45876  -11.79273    1.96698
      H1    -4.91889  -12.48907    2.44602
       H    -5.52752  -14.93552   -0.88167
       O    -4.92505  -14.23177   -1.12060
      H1    -4.04932  -14.56468   -0.86709
       H    -3.88208  -14.15330    5.77644
       O    -4.20831  -13.28518    5.44333
      H1    -4.77471  -13.37323    4.64790
       H    -6.54953  -13.03245    3.84573
       O    -6.08327  -13.66688    3.30482
      H1    -6.58555  -14.47476    3.05654
       H    -1.74338  -10.11036    3.57594
       O    -2.37417  -10.84848    3.70833
      H1    -2.87839  -10.93265    2.86788
       H    -1.67682  -15.81566    0.87838
       O    -1.57605  -16.06514    1.79474
      H1    -1.52012  -15.25232    2.34322
       H    -4.81875  -11.34436   -1.14507
       O    -5.64239  -11.69891   -0.68776
      H1    -5.39132  -12.62870   -0.58372
       H    -8.20756  -15.05327   -0.59440
       O    -7.79020  -14.78525    0.22605
      H1    -8.03196  -13.84275    0.34090
       H    -3.40107   -7.71190    4.14611
       O    -3.74852   -7.84802    3.26809
      H1    -4.57053   -8.36127    3.33958
       H    -7.90633  -11.37571   -0.22639
       O    -8.20347  -12.05503    0.38237
      H1    -9.14842  -12.07226    0.07286
       H     0.35240  -11.39930    2.24054
       O     0.18004  -12.10503    1.53540
      H1    -0.52948  -11.64810    1.06993
       H    -0.86809  -13.24907    2.71245
       O    -1.39745  -13.64658    3.39384
      H1    -1.85235  -12.90939    3.84974
       H    -5.38403  -10.44404    2.79084
       O    -5.82263   -9.70109    3.27674
      H1    -6.03129  -10.06298    4.17656
       H    -3.88903   -9.71926   -1.98280
       O    -3.48394  -10.63349   -2.04353
      H1    -2.64790  -10.65267   -1.58992
       H    -1.84396  -10.57438    0.05342
       O    -1.37649  -11.32028   -0.45944
      H1    -0.63865  -10.86273   -0.82756

