63
frame 5 | Written by MDAnalysis XYZWriter (release 2.4.3)
       H    14.65168    2.74963  -17.29208
       O    15.54535    3.00250  -17.55885
      H1    15.50404    3.23835  -18.50865
       H    15.13533   -1.40602  -16.62624
       O    14.81993   -0.59778  -16.31833
      H1    15.62430   -0.25149  -15.90645
       H    12.77453    1.41093  -17.06116
       O    13.32677    1.84497  -16.36693
      H1    13.80280    1.10072  -15.97989
       H    18.32940   -0.55165  -14.67709
       O    17.77482    0.21649  -14.51211
      H1    17.75904    0.72266  -15.36681
       H    15.80585   -3.66188  -18.65718
       O    15.47667   -3.29016  -17.81933
      H1    14.87093   -3.93782  -17.46671
       H    14.97521   -2.94745  -14.16527
       O    14.30170   -3.48449  -14.63379
      H1    14.78336   -4.29482  -14.91784
       H    18.11117   -4.66280  -18.38720
       O    18.67086   -3.95907  -18.79950
      H1    18.83316   -3.45338  -18.07083
       H    16.00563    4.88368  -17.16842
       O    16.05875    5.81296  -17.34682
      H1    16.49323    5.85466  -18.16344
       H    19.75593   -1.93212  -16.58031
       O    18.80687   -1.99153  -16.86232
      H1    18.72377   -1.22773  -17.47687
       H    17.38584    5.33377  -14.95239
       O    17.16526    4.42665  -14.64034
      H1    16.23657    4.38164  -14.75035
       H    15.40210    1.19192  -12.96712
       O    14.90778    0.48059  -13.25845
      H1    13.92906    0.55581  -13.18081
       H    19.08880    6.43924  -18.22450
       O    18.52125    6.22214  -18.96112
      H1    18.89621    6.85685  -19.65671
       H    18.05998    0.47961  -18.39644
       O    18.21731   -0.21529  -19.02881
      H1    17.30580   -0.35356  -19.35159
       H    16.72594    3.52519  -12.91321
       O    16.30811    2.85174  -12.31992
      H1    15.75290    3.49663  -11.83406
       H    12.12101    0.32913  -18.58253
       O    11.46189    1.00973  -18.21507
      H1    10.68663    0.48228  -17.94044
       H    18.68386   -3.29670  -13.57185
       O    18.11089   -4.07192  -13.43396
      H1    17.82621   -4.13139  -12.52290
       H    16.93884   -2.58598  -13.47622
       O    16.07273   -2.30791  -13.05446
      H1    15.96049   -1.37753  -13.23381
       H    13.91740   -1.25983  -18.68336
       O    13.27050   -0.74900  -19.17330
      H1    12.87323   -1.38760  -19.82925
       H    18.40491    1.64016  -17.26821
       O    17.53370    1.36447  -16.89013
      H1    16.84969    1.98061  -17.22777
       H    19.19278   -5.84451  -16.90977
       O    18.46428   -6.33934  -17.15437
      H1    18.78769   -6.99227  -17.81705
       H    18.62188    1.21652  -13.43079
       O    19.25916    1.78357  -13.04526
      H1    20.14576    1.54946  -13.30800

