63
frame 5 | Written by MDAnalysis XYZWriter (release 2.4.3)
       H    -1.90918  -17.84689  -11.21929
       O    -2.53174  -17.40076  -10.66458
      H1    -2.60192  -16.50017  -10.98654
       H     3.54283  -17.14531  -10.95996
       O     3.16495  -18.07321  -10.86149
      H1     2.99107  -18.34447  -11.77840
       H     1.79440  -12.11585   -6.29309
       O     1.53656  -12.81011   -6.91335
      H1     0.75223  -13.22324   -6.52878
       H     6.62230  -16.85332   -9.02689
       O     6.55697  -16.05186   -9.54196
      H1     6.04384  -16.28952  -10.34131
       H     0.42316  -15.90953  -12.65191
       O    -0.26172  -16.58773  -12.45660
      H1     0.13145  -16.93503  -11.59850
       H     1.96692  -15.79317  -14.72759
       O     2.53061  -16.11713  -15.44599
      H1     2.19492  -16.94938  -15.83180
       H     2.55844  -12.29844   -8.45300
       O     3.26520  -12.05299   -9.07186
      H1     2.92757  -11.93579   -9.97516
       H     1.61860  -14.70162  -12.07396
       O     1.61405  -14.75907  -13.02817
      H1     0.97161  -14.10131  -13.37980
       H    -0.52877  -11.69278  -10.66886
       O     0.19773  -11.33026  -10.14600
      H1     0.81331  -12.01463  -10.40181
       H    -2.67232  -15.53951   -6.42662
       O    -1.89596  -16.14947   -6.26824
      H1    -1.26458  -16.02106   -7.03495
       H     4.49320  -16.35279  -12.53840
       O     4.64773  -15.86541  -11.74152
      H1     5.19604  -15.08344  -12.05979
       H     4.92931  -10.28536  -12.15717
       O     4.85933  -11.12969  -12.49971
      H1     3.91048  -11.36956  -12.42402
       H     1.11135  -18.33744  -10.48598
       O     0.35797  -18.24930   -9.87615
      H1     0.08377  -19.13204   -9.67597
       H    -2.48912  -11.59593  -11.57971
       O    -1.80733  -12.31765  -11.58144
      H1    -2.32996  -13.12042  -11.43624
       H     1.27565  -16.74658   -7.24672
       O     0.38798  -16.68507   -7.72686
      H1     0.41109  -17.36557   -8.39624
       H     2.57523  -14.89038   -9.78273
       O     1.76053  -14.90314  -10.28463
      H1     1.16413  -15.22173   -9.57866
       H     3.67852  -13.75668   -8.74892
       O     3.95633  -14.66525   -8.53732
      H1     4.60927  -14.94670   -9.18733
       H     3.20159  -15.46550   -7.16429
       O     2.85834  -16.03967   -6.46056
      H1     2.76292  -15.43554   -5.66288
       H    -0.92216  -12.89280  -14.74027
       O    -0.40886  -12.75840  -13.91630
      H1    -1.07572  -12.65149  -13.23126
       H     3.42231  -17.98822   -9.14154
       O     3.46144  -18.27302   -8.21148
      H1     3.11694  -17.52343   -7.72964
       H     2.14730  -12.12553  -13.00774
       O     2.29425  -11.67106  -12.15302
      H1     1.84420  -10.76710  -12.17110

