63
frame 4 | Written by MDAnalysis XYZWriter (release 2.4.3)
       H    16.97818   14.82564   -4.98903
       O    16.54029   15.58344   -5.44213
      H1    16.05004   15.07757   -6.05945
       H    14.62811   15.85669    2.70322
       O    14.71654   15.27657    1.93356
      H1    15.36741   14.55631    2.12803
       H    18.24300   15.91936   -3.92316
       O    19.06813   16.25763   -3.51436
      H1    18.75819   17.07565   -3.10466
       H    18.53724   15.09390    2.73382
       O    18.78437   15.63155    1.93904
      H1    18.07324   16.21642    1.72818
       H    10.51193   18.91683    0.67663
       O    11.38317   19.05430    1.19046
      H1    11.26989   19.57474    1.99301
       H    13.92895   19.00658   -1.54507
       O    13.96863   19.26102   -2.54027
      H1    14.00455   18.40776   -2.99721
       H    11.78996   17.43204   -6.66254
       O    12.37688   17.54778   -7.42465
      H1    12.62499   16.64119   -7.55135
       H    12.66197   17.76215    2.23115
       O    12.55565   17.02562    2.79928
      H1    12.05928   17.50026    3.49476
       H    16.04833   17.23223    0.45530
       O    16.68114   17.91738    0.50888
      H1    17.00059   18.17863   -0.34390
       H    10.98821   18.45319   -2.36288
       O    11.20004   19.26198   -2.87408
      H1    12.18508   19.25311   -2.97959
       H    14.19723   16.16808    0.52720
       O    14.15089   16.80812   -0.18689
      H1    13.22506   16.79870   -0.47532
       H    14.77352   14.08302   -1.40420
       O    13.83522   14.37695   -1.61107
      H1    13.69887   15.25147   -1.35775
       H    11.28312   16.34224   -2.50754
       O    11.47692   16.73037   -1.61752
      H1    10.67716   16.56828   -1.10089
       H    10.78902   16.26445   -4.70107
       O    10.99005   15.51112   -4.19461
      H1    10.18593   15.03468   -4.00683
       H    13.80411   19.90071    4.43737
       O    13.89587   19.30727    5.20557
      H1    13.68411   19.87863    5.91115
       H     8.58090   17.70869    0.07248
       O     9.30867   18.25318   -0.24441
      H1     8.88676   19.08454   -0.46312
       H    10.67864   18.74523   -4.54994
       O    10.69346   18.07723   -5.21844
      H1     9.82975   18.13318   -5.66287
       H    11.72129   12.52096   -0.59264
       O    11.72123   12.59616   -1.55000
      H1    12.42754   13.23856   -1.68776
       H    10.87375   16.38641    1.96433
       O    10.00393   15.96751    1.79534
      H1     9.87239   15.09490    2.17981
       H    16.42093   18.66743   -3.90439
       O    17.22666   19.01135   -3.45427
      H1    17.72905   19.39976   -4.15620
       H    14.77203   17.87775   -5.03293
       O    14.94156   17.35374   -4.18203
      H1    15.52307   16.67926   -4.58673

