63
frame 5 | Written by MDAnalysis XYZWriter (release 2.4.3)
       H     3.94124   11.00895   17.00352
       O     4.01422   10.04896   17.18937
      H1     4.83514    9.94071   17.70116
       H     9.11010    3.83853   16.78037
       O     8.43171    3.64125   16.08756
      H1     8.86914    3.95718   15.32107
       H     5.33774    5.13125   18.45443
       O     5.11058    6.04866   18.73893
      H1     4.63775    6.20782   17.92894
       H     3.16719    6.03524   16.40211
       O     3.89966    6.69312   16.40454
      H1     3.44586    7.50558   16.33917
       H     1.50322   10.00599   20.28320
       O     0.95237   10.55607   19.67583
      H1     0.67378    9.97297   18.95080
       H     5.15951    3.93490   14.88989
       O     5.15652    2.99567   14.59934
      H1     4.44309    2.65492   15.12624
       H     5.01451    6.07083   15.20831
       O     5.61659    5.64461   14.59649
      H1     5.16260    5.74801   13.77115
       H     2.02422    9.33378   14.78228
       O     2.04636    8.95836   15.70107
      H1     2.80303    9.36594   16.13347
       H     3.03966    2.08803   19.17031
       O     3.78715    1.63355   18.69890
      H1     4.43552    2.37545   18.54536
       H     8.89567    5.97126   14.18239
       O     8.12401    6.58552   14.10249
      H1     7.30174    6.08905   14.25428
       H    -0.46268    6.24993   19.53589
       O    -0.29869    6.21101   18.58699
      H1     0.49291    6.80884   18.49629
       H     0.70763    5.70842   14.81872
       O     1.09554    6.54960   14.42822
      H1     1.35584    7.08647   15.11143
       H     1.31495    4.67025   17.42864
       O     1.84732    4.82182   16.63106
      H1     2.32469    4.01451   16.44567
       H     1.85308    2.13901   15.97287
       O     2.76156    2.31639   16.10902
      H1     2.96195    1.77891   16.93937
       H     2.88312    4.69445   12.32043
       O     3.21238    5.25964   12.97120
      H1     2.39306    5.39094   13.52198
       H     6.35350    3.83196   17.10827
       O     5.87054    3.65168   17.94405
      H1     6.53562    3.23049   18.51831
       H     0.78063    9.51795   16.66823
       O    -0.02676    9.43747   17.25214
      H1    -0.32794   10.34344   17.42873
       H     6.78604    6.82978   19.17859
       O     7.74403    7.09010   19.24738
      H1     8.17073    6.25138   19.09622
       H     6.87766    8.69881   18.81763
       O     6.27000    9.40273   18.46953
      H1     6.81292   10.23671   18.49766
       H     6.30700    8.69818   13.42975
       O     5.78195    8.74636   12.64817
      H1     6.28228    9.18838   11.93822
       H     7.20816    9.17915   15.81407
       O     6.31688    9.32635   15.47367
      H1     5.76847    9.47448   16.23160

