63
frame 0 | Written by MDAnalysis XYZWriter (release 2.4.3)
       H   -10.85830   17.52111   -1.65519
       O   -11.51274   17.51379   -0.91983
      H1   -11.15471   16.79059   -0.41482
       H   -13.36029   16.83705   -0.61754
       O   -14.14469   16.29087   -0.42491
      H1   -14.92518   16.85215   -0.37696
       H    -7.03769   12.83097   -4.60565
       O    -7.91353   13.21563   -4.73193
      H1    -8.24074   12.99467   -5.57706
       H    -5.80360   18.82839   -1.50807
       O    -5.74815   19.39514   -0.73108
      H1    -6.59254   19.47615   -0.32803
       H   -11.35769   18.96044    0.08188
       O   -11.41716   19.76232    0.59838
      H1   -11.46973   19.40292    1.49728
       H   -13.37204   17.70671   -5.78672
       O   -13.02966   17.98272   -4.88843
      H1   -12.53188   17.18860   -4.54421
       H   -10.87037   16.73275   -6.34945
       O   -11.42659   16.06691   -6.76283
      H1   -12.34017   16.35946   -6.81848
       H    -9.09551   18.22330   -5.77035
       O    -9.37987   17.37228   -5.43227
      H1    -8.63720   16.77882   -5.63815
       H    -7.99724   15.17298   -1.82885
       O    -7.73951   15.68339   -1.06318
      H1    -7.42774   14.97689   -0.52342
       H    -3.66324   15.42138   -4.58903
       O    -4.15441   16.20536   -4.79350
      H1    -4.66435   16.46343   -3.98075
       H   -10.91693   12.39241   -0.21075
       O   -11.00853   13.31531   -0.44872
      H1   -10.60534   13.33225   -1.33824
       H   -12.31017   14.73503   -4.83664
       O   -12.47231   15.24377   -3.99392
      H1   -13.23782   14.84246   -3.53111
       H    -9.36651   17.73091   -3.72017
       O    -9.49317   17.92603   -2.76358
      H1    -9.53713   18.89259   -2.71533
       H    -7.25180   14.78530   -5.43371
       O    -6.94507   15.57247   -5.92680
      H1    -5.97761   15.61740   -5.74480
       H   -15.71913   17.97666   -3.85529
       O   -15.37890   18.85134   -3.91473
      H1   -14.41643   18.78756   -4.14437
       H    -6.76553   17.57689    1.68908
       O    -5.92157   17.56118    2.25409
      H1    -5.12798   17.81886    1.73673
       H    -4.88557   16.75845   -1.97674
       O    -5.70676   16.95196   -2.46014
      H1    -6.29461   16.49529   -1.84122
       H   -12.57467   13.60541   -0.66653
       O   -13.53514   13.65763   -0.81081
      H1   -13.80921   14.58655   -0.71370
       H    -8.34813   17.10215   -0.10645
       O    -8.36198   17.35183    0.86772
      H1    -8.63222   18.28807    0.86175
       H   -10.44699   14.50706   -3.48702
       O    -9.75046   13.90740   -3.08916
      H1    -9.26906   13.59936   -3.86658
       H   -10.71163   14.85067    0.47453
       O   -10.60452   15.67297    0.99609
      H1    -9.72324   16.06357    0.92881

