63
frame 6 | Written by MDAnalysis XYZWriter (release 2.4.3)
       H    13.48074  -15.94749   -2.20987
       O    12.96911  -16.08820   -2.98327
      H1    13.41614  -16.62460   -3.63074
       H    14.25779  -17.34105   -5.41470
       O    13.43481  -17.91141   -5.53779
      H1    12.69717  -17.38087   -5.85327
       H     8.23783  -13.94968   -2.45850
       O     7.84243  -14.59660   -3.00312
      H1     8.37681  -14.62004   -3.85460
       H    15.57151  -16.15074   -6.44673
       O    15.88858  -16.87205   -5.89502
      H1    16.04392  -17.59439   -6.53311
       H    10.68471  -12.69308   -8.53888
       O     9.76341  -12.54924   -8.74900
      H1     9.41866  -13.40967   -8.94743
       H     6.60973  -14.39720   -7.60595
       O     7.33815  -15.01258   -7.54533
      H1     7.22854  -15.46763   -8.38674
       H    12.80667  -20.09658   -8.33293
       O    13.38415  -19.61034   -8.94285
      H1    12.87528  -18.75300   -9.01062
       H    13.57046  -14.02261  -11.33813
       O    13.05087  -14.19409  -10.54229
      H1    13.15123  -15.13633  -10.34705
       H     7.76833  -18.66311   -6.47518
       O     8.65560  -18.27306   -6.61590
      H1     8.72141  -18.43943   -7.57385
       H    10.39747  -17.11297   -6.62942
       O    11.21370  -16.58021   -6.47529
      H1    11.02125  -15.72569   -6.17960
       H     8.61058  -11.25775   -6.02868
       O     9.36508  -11.83917   -5.95246
      H1     9.40379  -12.20895   -6.86760
       H    13.37719  -16.79098   -8.73444
       O    12.49809  -17.13869   -8.94904
      H1    11.98297  -16.88640   -8.21228
       H    14.13042  -14.33730   -5.68666
       O    14.48036  -14.64504   -6.56067
      H1    15.39122  -14.28930   -6.62856
       H     9.75107  -15.35956  -10.81677
       O     9.06437  -14.75442  -10.59566
      H1     8.35777  -15.32148  -10.31762
       H    13.17561  -13.54416   -7.44014
       O    12.48338  -13.07963   -8.05128
      H1    12.78578  -13.47696   -8.91843
       H    11.19950  -18.71708   -2.20316
       O    10.82646  -17.87954   -1.84733
      H1    11.20225  -17.15409   -2.31771
       H    13.16846  -14.36041   -3.64938
       O    13.37385  -13.68489   -4.27970
      H1    14.18605  -13.19090   -4.02196
       H    15.33576  -16.65623   -9.98206
       O    15.11348  -16.89996   -9.07566
      H1    15.43030  -17.80659   -8.96907
       H    10.98472  -20.08595   -4.39273
       O    10.52797  -20.03483   -5.25070
      H1    10.07833  -19.13067   -5.23809
       H     8.51725  -14.78857   -6.14772
       O     9.27048  -14.61395   -5.53041
      H1     9.38093  -13.58864   -5.42715
       H    11.35744  -17.05200  -10.34165
       O    10.75701  -16.74663  -11.06940
      H1     9.93594  -17.32620  -11.12869

