63
frame 5 | Written by MDAnalysis XYZWriter (release 2.4.3)
       H     0.39832    3.15028    2.48139
       O     0.12583    4.09531    2.25866
      H1     0.88832    4.50532    1.80872
       H     2.98602    3.75621    9.69093
       O     3.44938    4.05105   10.46552
      H1     4.31781    3.74565   10.53894
       H    -0.44140    5.09230    4.56611
       O    -0.02931    5.17285    5.41301
      H1     0.90669    5.14802    5.26318
       H     2.73138    5.82149    6.71299
       O     3.30008    5.87212    5.95679
      H1     3.99424    5.21932    5.90957
       H    -1.87595    4.54799    9.15712
       O    -2.66650    4.02092    9.00649
      H1    -3.41484    4.60947    8.80822
       H    -3.72671    1.31779    5.04754
       O    -4.62340    1.54714    4.75706
      H1    -5.21620    0.81109    4.76787
       H     0.22042    5.94403    9.40628
       O    -0.39284    5.56367   10.05869
      H1    -0.51005    6.33884   10.71244
       H    -1.61700    4.78968    2.81214
       O    -2.36304    5.37739    3.08421
      H1    -2.97663    4.80408    3.51527
       H    -2.23710    6.66158    7.71216
       O    -2.04267    6.59087    6.76480
      H1    -1.18466    6.18040    6.79027
       H    -4.86860    5.84199    7.46968
       O    -5.45763    5.15380    7.19004
      H1    -5.00907    4.76759    6.44018
       H     0.73711   -0.40887    5.93346
       O    -0.11509   -0.76749    5.59436
      H1    -0.73780   -0.03248    5.71841
       H    -1.73143    3.37528    7.64410
       O    -1.04094    3.09378    7.08915
      H1    -0.88796    3.94476    6.56718
       H     0.80017    3.03149    7.86120
       O     1.73061    2.88680    8.13938
      H1     2.23914    2.83195    7.31920
       H     0.87677    0.56649   10.66236
       O     1.26593    1.50702   10.59802
      H1     1.31380    1.72297    9.61079
       H     2.35266    6.22383    8.50535
       O     1.46982    6.19681    8.04319
      H1     1.31009    7.14052    7.74577
       H    -1.49502    1.95683    5.96330
       O    -1.74068    1.24577    5.36612
      H1    -1.25049    1.36599    4.52059
       H    -4.92757    4.73398    4.33314
       O    -4.11854    4.32785    4.70221
      H1    -4.29136    3.36409    4.57673
       H    -0.62765    0.98045    2.09120
       O     0.08926    1.31265    2.69850
      H1     0.85308    0.73930    2.45182
       H     4.12036    2.46692    7.05350
       O     3.60576    2.58578    6.25073
      H1     4.04420    3.29543    5.83271
       H     0.37589    4.45406   11.11205
       O     0.73500    3.87249   11.85306
      H1     0.85659    3.00389   11.40343
       H    -5.73077    0.71321    9.46325
       O    -4.94716    1.27304    9.39915
      H1    -4.62346    1.34478   10.29774

