63
frame 5 | Written by MDAnalysis XYZWriter (release 2.4.3)
       H   -17.61661   -2.84183  -11.64874
       O   -17.22362   -2.84538  -12.56068
      H1   -17.16815   -3.81005  -12.74047
       H   -17.55252    0.86766  -15.02879
       O   -17.21802    1.26038  -14.17503
      H1   -17.06399    2.18831  -14.44152
       H   -15.64326    0.38086  -13.46292
       O   -15.09988   -0.04813  -12.79427
      H1   -14.26637   -0.29188  -13.19198
       H   -14.54651    1.11478  -16.33313
       O   -15.05758    1.78561  -16.84461
      H1   -15.51652    2.20259  -16.07186
       H   -16.82108   -6.37544  -13.97665
       O   -17.40689   -5.66965  -13.65071
      H1   -18.13952   -6.06494  -13.09604
       H   -15.39038   -2.54671  -12.22233
       O   -14.50893   -2.96518  -11.97031
      H1   -14.77561   -3.86697  -11.76926
       H   -17.60058    0.05534  -17.21613
       O   -17.79316   -0.49176  -16.39968
      H1   -17.21943   -1.25071  -16.42852
       H   -16.43625   -7.83103  -17.96649
       O   -17.18131   -7.30388  -17.70626
      H1   -17.95584   -7.67487  -18.09806
       H   -13.14916   -2.35277  -12.87520
       O   -12.33389   -2.01395  -13.31116
      H1   -12.58285   -1.28367  -13.88864
       H   -15.84656   -0.66796  -18.85666
       O   -15.17919   -1.00388  -19.45100
      H1   -14.59297   -1.36126  -18.73591
       H   -20.08667   -1.35672  -12.49823
       O   -19.78913   -1.68487  -13.32469
      H1   -18.88025   -1.84833  -13.11562
       H   -15.39625   -7.35390  -15.14077
       O   -15.87895   -7.73151  -14.38856
      H1   -16.68054   -8.10994  -14.81871
       H   -16.27607   -4.59146  -18.83511
       O   -15.36225   -4.34461  -18.65218
      H1   -15.09190   -3.89264  -19.42004
       H   -14.37745   -5.47813  -16.09962
       O   -14.26635   -6.40953  -16.16932
      H1   -13.32680   -6.55343  -15.99844
       H   -16.56401   -3.25842  -15.70548
       O   -16.47563   -2.83347  -16.53338
      H1   -16.34454   -3.52141  -17.19453
       H   -19.00676   -4.98520  -18.63646
       O   -18.05874   -5.01042  -18.76748
      H1   -17.79109   -5.76962  -18.25628
       H   -14.65602   -3.22884  -16.18941
       O   -13.89723   -3.65816  -15.70057
      H1   -13.52506   -3.12282  -14.95589
       H   -11.88998   -1.80221  -17.46928
       O   -12.81452   -1.82901  -17.22688
      H1   -13.03288   -2.67423  -16.76897
       H   -13.78855   -7.76286  -19.21712
       O   -14.10234   -7.05778  -19.78804
      H1   -14.23395   -6.32453  -19.18197
       H   -18.97742   -8.80436  -15.30976
       O   -18.02270   -8.79872  -15.56075
      H1   -17.80267   -8.27350  -16.31484
       H   -12.84102   -0.67716  -15.64312
       O   -13.20106   -0.03545  -15.02599
      H1   -12.50475    0.67387  -15.02190

