63
frame 5 | Written by MDAnalysis XYZWriter (release 2.4.3)
       H     5.81682  -19.05641  -15.99917
       O     4.86862  -19.11631  -15.91458
      H1     4.56616  -19.98992  -15.63244
       H     9.32237  -15.03450  -17.01502
       O    10.23509  -14.78941  -16.87732
      H1    10.69566  -14.93013  -17.78188
       H    12.30264  -18.09963  -16.69792
       O    12.53253  -18.33457  -15.77454
      H1    11.81344  -17.81985  -15.28335
       H     5.81773  -16.36295  -16.60081
       O     5.75940  -15.79876  -15.79870
      H1     6.57830  -15.93329  -15.36081
       H     4.02777  -17.00217  -18.19173
       O     4.90427  -17.41926  -18.00415
      H1     4.68950  -17.98265  -17.21222
       H     4.34887  -13.11593  -14.59128
       O     4.08698  -13.67589  -15.35837
      H1     4.54067  -14.52535  -15.18242
       H     9.73247  -13.31181  -17.66920
       O     9.41603  -12.60125  -18.26871
      H1     8.48271  -12.70711  -18.35262
       H     3.20048  -15.66622  -17.31099
       O     2.85623  -15.75358  -18.19014
      H1     3.36269  -15.07280  -18.69839
       H    12.30861  -13.02197  -17.50337
       O    13.08451  -12.43473  -17.74724
      H1    12.65644  -11.55248  -17.94666
       H    11.96135  -14.12162  -19.58762
       O    11.88845  -14.85035  -18.96105
      H1    12.68718  -14.73127  -18.40992
       H     7.89113  -17.75473  -15.64259
       O     7.65285  -18.66505  -15.87440
      H1     7.99137  -18.73935  -16.81011
       H     3.77366  -13.02694  -18.39479
       O     4.59402  -13.47963  -18.14704
      H1     4.59148  -13.56641  -17.20690
       H    12.83879  -17.22171  -19.23710
       O    12.63850  -18.00162  -18.65867
      H1    13.34090  -18.69188  -18.92756
       H     7.63570   -9.72393  -16.67524
       O     7.82072  -10.63797  -16.78152
      H1     8.55280  -10.71444  -17.42846
       H    10.91584  -15.92549  -14.12960
       O    10.66071  -16.57520  -14.78931
      H1    10.56415  -15.95115  -15.47670
       H     7.11252  -11.33081  -18.10966
       O     6.91464  -11.98459  -18.82417
      H1     6.15370  -12.46828  -18.51817
       H     8.70202  -14.03796  -12.92065
       O     8.85480  -13.59292  -12.09227
      H1     9.17815  -14.27828  -11.45518
       H     7.75535  -19.06487  -12.86897
       O     7.14956  -18.37534  -12.44181
      H1     6.55771  -18.97198  -11.99327
       H    14.72185  -15.55563  -16.63043
       O    14.41589  -15.94815  -17.43933
      H1    13.91366  -16.76022  -17.30616
       H     8.41193  -16.47402  -18.45720
       O     8.05423  -15.76706  -17.86178
      H1     7.44484  -15.25792  -18.43001
       H     8.98208  -16.34587  -14.13063
       O     8.09815  -16.01820  -14.01100
      H1     7.66565  -16.52635  -13.26345

