63
frame 6 | Written by MDAnalysis XYZWriter (release 2.4.3)
       H     0.71270   17.40825  -10.46742
       O     1.47528   17.20107  -11.06401
      H1     2.18411   16.76454  -10.51261
       H    -2.62262   16.47438  -12.71257
       O    -2.81754   17.01727  -13.48674
      H1    -2.88740   16.38304  -14.22511
       H     0.79557   16.02098  -13.42455
       O     1.17774   15.22894  -13.01103
      H1     1.32924   15.51021  -12.08364
       H     2.57104   15.11534  -13.75061
       O     3.42729   15.25431  -14.14452
      H1     3.52890   14.47368  -14.75289
       H    -1.20658   18.96688  -11.00830
       O    -1.18788   19.20985  -10.04709
      H1    -2.11858   19.29000   -9.82781
       H    -0.05534   17.24904   -5.57014
       O     0.44033   16.99369   -4.78985
      H1     0.89054   17.85677   -4.60762
       H    -0.79575   18.37960  -15.07237
       O    -1.47375   18.88248  -15.51574
      H1    -1.56381   18.27712  -16.29309
       H    -1.69646   14.00479  -13.33018
       O    -1.07520   13.85056  -12.60994
      H1    -0.30663   14.25274  -12.91708
       H     5.54541   16.50128  -10.20487
       O     5.66609   16.03455  -11.04850
      H1     6.62843   15.88828  -11.15009
       H     0.95539   14.63585   -7.21769
       O     0.33753   14.30695   -7.87041
      H1     0.62642   13.39335   -7.97853
       H     4.08307   17.84851  -12.36660
       O     3.52313   18.63017  -12.19703
      H1     2.74463   18.22332  -11.83637
       H     1.47904   17.82337  -14.78345
       O     0.59645   17.58406  -14.38721
      H1     0.51259   18.18798  -13.69037
       H     3.13699   16.44329   -8.36229
       O     3.26914   15.83528   -9.12216
      H1     3.72204   14.96543   -8.87539
       H    -1.58033   18.51314  -13.04716
       O    -0.78351   19.00237  -12.68157
      H1    -0.92315   19.88471  -13.03596
       H     1.81746   12.94753  -10.77079
       O     2.42559   13.23785  -10.08274
      H1     2.17896   14.12933   -9.84862
       H     2.11269   17.70542   -7.42168
       O     3.06076   17.88683   -7.24753
      H1     3.15332   18.79160   -7.57624
       H    -2.43895   13.73536   -6.31490
       O    -2.16573   13.88405   -7.26344
      H1    -1.20649   14.06102   -7.19279
       H    -1.93830   14.86544  -11.11155
       O    -2.55566   15.59731  -10.99512
      H1    -2.50822   15.96047  -10.06160
       H    -2.44163   15.76130   -7.98189
       O    -2.17920   16.51447   -8.53584
      H1    -2.62310   17.29568   -8.20000
       H    -4.11551   19.81487   -8.47735
       O    -3.47712   19.09267   -8.36153
      H1    -2.97786   19.15729   -7.52868
       H     0.50346   16.21244   -7.95479
       O     0.61334   17.15449   -8.04187
      H1    -0.27106   17.51368   -8.29376

