63
frame 6 | Written by MDAnalysis XYZWriter (release 2.4.3)
       H     2.94417  -17.07108  -10.60417
       O     2.57038  -17.92665  -10.65251
      H1     2.46721  -18.11373  -11.59311
       H     5.44330  -15.55102  -17.07976
       O     5.76814  -14.80160  -16.55589
      H1     6.70554  -14.69332  -16.60689
       H     6.38389  -13.74147  -12.74444
       O     5.44443  -13.66995  -12.54190
      H1     5.16403  -12.75052  -12.71125
       H     6.63882  -17.23624   -9.25304
       O     6.93354  -16.52188   -9.83920
      H1     6.19139  -16.44263  -10.49838
       H     1.52749  -15.40064  -14.94908
       O     2.11634  -15.24290  -15.68873
      H1     2.92479  -15.66676  -15.31309
       H     2.64615  -19.03331  -13.39801
       O     2.39427  -18.09431  -13.39839
      H1     3.23099  -17.58672  -13.43070
       H     6.60973  -14.39720   -7.60595
       O     7.33815  -15.01258   -7.54533
      H1     7.22854  -15.46763   -8.38674
       H     6.36812  -19.95779  -12.20189
       O     6.01292  -19.26707  -11.65167
      H1     5.06895  -19.47931  -11.61840
       H     7.74139  -18.32667  -16.26410
       O     7.43098  -19.22291  -16.03503
      H1     7.63449  -19.80409  -16.78762
       H     9.75107  -15.35956  -10.81677
       O     9.06437  -14.75442  -10.59566
      H1     8.35777  -15.32148  -10.31762
       H     6.10263  -19.37215   -9.75565
       O     6.12936  -19.22071   -8.78226
      H1     5.23898  -18.87807   -8.44545
       H     0.98789  -15.75613  -12.45673
       O     0.58059  -15.46387  -13.31799
      H1     0.53139  -14.50986  -13.21324
       H     4.32617  -17.30084  -15.30239
       O     4.36334  -16.50941  -14.75565
      H1     5.07554  -15.84976  -15.07639
       H     5.02435  -17.09348  -12.27204
       O     4.85802  -16.34749  -11.64626
      H1     4.95037  -15.53749  -12.11926
       H     0.77967  -17.70004  -10.16181
       O    -0.14179  -17.56776  -10.07006
      H1    -0.60159  -18.41203  -10.05874
       H     2.82959  -14.49242  -10.18314
       O     2.06538  -15.09630  -10.18894
      H1     1.24575  -14.64290  -10.33367
       H     4.92706  -13.23161  -10.08722
       O     4.58152  -14.05624   -9.64119
      H1     5.04145  -14.69403  -10.22318
       H     8.13662  -14.81256  -13.50701
       O     8.14678  -13.86456  -13.15134
      H1     8.49366  -13.84784  -12.25467
       H     8.70362  -18.93774  -12.51509
       O     8.54021  -18.09244  -12.06594
      H1     7.94861  -18.37265  -11.38890
       H     3.16950  -18.56507   -9.00668
       O     3.49722  -18.78195   -8.11331
      H1     3.28400  -18.03819   -7.54194
       H     8.80911  -16.26592  -15.01988
       O     8.03782  -16.25687  -14.42511
      H1     8.12993  -16.98003  -13.79564

