63
frame 5 | Written by MDAnalysis XYZWriter (release 2.4.3)
       H     1.79440  -12.11585   -6.29309
       O     1.53656  -12.81011   -6.91335
      H1     0.75223  -13.22324   -6.52878
       H    -0.61905   -8.47681   -2.19624
       O     0.01296   -8.65062   -2.94943
      H1    -0.49424   -9.10876   -3.61163
       H     2.78459  -10.95036   -4.47822
       O     1.87237  -10.93669   -4.66200
      H1     1.36540  -11.39065   -3.97168
       H    -3.68811  -17.48384   -3.92282
       O    -2.79998  -17.67833   -4.10021
      H1    -2.45086  -16.98790   -4.64826
       H     5.53675  -12.96913   -3.38004
       O     4.70045  -12.56136   -3.43656
      H1     4.00073  -13.19492   -3.56506
       H    -1.54655  -14.23796   -5.82981
       O    -0.89517  -13.58455   -5.66333
      H1    -1.28683  -12.70575   -5.60672
       H     0.21314  -13.11600   -4.37242
       O     0.58789  -12.92890   -3.49462
      H1     0.04450  -13.30962   -2.76074
       H     1.73856  -14.86534    0.17861
       O     1.35814  -13.98553    0.18551
      H1     1.94735  -13.42439   -0.37744
       H    -3.69326  -11.23698   -3.64102
       O    -3.51062  -11.72937   -4.44030
      H1    -4.23572  -11.75631   -5.05186
       H     0.59357   -9.56408   -1.72098
       O     0.91675  -10.15884   -1.02613
      H1     1.21556   -9.67267   -0.23634
       H    -1.41580  -15.38200   -0.93231
       O    -1.90525  -16.20691   -0.72612
      H1    -1.35569  -16.93740   -1.03201
       H    -2.67232  -15.53951   -6.42662
       O    -1.89596  -16.14947   -6.26824
      H1    -1.26458  -16.02106   -7.03495
       H    -3.86406  -13.25502   -3.76541
       O    -3.95977  -14.20436   -3.53445
      H1    -4.07502  -14.24353   -2.54673
       H     3.47208  -16.75023   -1.52865
       O     3.75686  -16.51819   -2.45947
      H1     4.72292  -16.60756   -2.61307
       H    -0.92261  -13.24719   -1.05292
       O    -0.57929  -13.99820   -1.60907
      H1     0.22746  -14.34396   -1.23011
       H     3.00720  -15.27935   -3.44401
       O     2.92322  -14.55670   -4.06103
      H1     2.16801  -14.08175   -3.79668
       H     3.20159  -15.46550   -7.16429
       O     2.85834  -16.03967   -6.46056
      H1     2.76292  -15.43554   -5.66288
       H     2.30705  -11.22769   -1.13477
       O     2.97135  -11.91493   -1.07046
      H1     3.40138  -12.10741   -1.91550
       H    -2.10113  -10.63203   -4.91371
       O    -1.36318   -9.99662   -5.14133
      H1    -1.85743   -9.17545   -5.28032
       H    -3.90895   -9.69539   -1.58740
       O    -3.46110  -10.43695   -2.10590
      H1    -2.71566  -10.70383   -1.54639
       H    -2.17110  -10.58983    0.18063
       O    -1.53695  -11.20118   -0.31121
      H1    -0.70757  -10.68778   -0.39045

