63
frame 6 | Written by MDAnalysis XYZWriter (release 2.4.3)
       H    -9.01481   19.45953   -7.26246
       O    -9.05692   19.31611   -6.30297
      H1    -9.92364   19.45925   -5.88444
       H    -3.44829   19.27255  -14.39793
       O    -4.27519   19.79796  -14.37666
      H1    -4.84607   19.52442  -13.66756
       H   -11.84463   20.03288   -4.97813
       O   -11.10908   19.56420   -4.62133
      H1   -11.23336   18.66342   -4.32268
       H    -9.72485   17.21852   -9.60352
       O   -10.09213   17.31892  -10.50787
      H1    -9.31399   17.68330  -10.96119
       H    -6.05524   14.68577  -11.05186
       O    -6.68812   15.45125  -11.16765
      H1    -6.18706   16.26404  -10.95770
       H    -8.61782   18.40575  -12.87464
       O    -8.00032   18.22634  -12.11951
      H1    -7.43424   17.44062  -12.27821
       H    -9.33093   18.96831   -9.44996
       O    -8.67487   19.58512   -9.21380
      H1    -7.84755   19.14634   -8.98159
       H   -10.14846   16.78054   -6.73380
       O   -10.83598   16.53854   -7.38562
      H1   -11.61828   16.58144   -6.82777
       H    -8.56496   17.68042   -5.98816
       O    -8.53918   16.74397   -5.76438
      H1    -7.84965   16.28984   -6.30151
       H    -4.71492   17.13978  -14.09450
       O    -5.60416   16.98476  -13.78209
      H1    -6.25386   17.22841  -14.48664
       H    -4.12644   15.72885   -5.28062
       O    -4.33106   16.57511   -5.71423
      H1    -4.96185   16.94253   -5.07088
       H    -5.88002   17.18107   -8.83249
       O    -6.21220   18.04685   -9.14963
      H1    -5.56385   18.69679   -8.97123
       H    -8.05377   17.32502   -4.05497
       O    -7.93044   17.43521   -3.10832
      H1    -7.49837   18.31160   -2.98471
       H    -6.34295   14.61002   -6.95498
       O    -6.51870   15.50366   -7.03778
      H1    -5.71143   15.91236   -6.67921
       H   -12.08465   13.80531   -8.13651
       O   -11.23794   13.99421   -7.67757
      H1   -11.00952   14.90076   -7.84680
       H   -10.78192   17.64817  -14.27164
       O   -10.03016   18.28694  -14.22652
      H1   -10.47448   19.07006  -13.91593
       H   -11.47737   20.01547  -10.69508
       O   -12.03768   19.37675  -10.17498
      H1   -11.55149   18.53175  -10.36790
       H   -11.41935   14.77448  -12.58189
       O   -11.46061   14.89635  -11.60987
      H1   -11.48649   15.87381  -11.41470
       H    -2.44163   15.76130   -7.98189
       O    -2.17920   16.51447   -8.53584
      H1    -2.62310   17.29568   -8.20000
       H    -9.75410   14.17619  -11.61081
       O    -8.87955   13.70891  -11.50737
      H1    -8.22234   14.33164  -11.28235
       H    -4.11551   19.81487   -8.47735
       O    -3.47712   19.09267   -8.36153
      H1    -2.97786   19.15729   -7.52868

