63
frame 6 | Written by MDAnalysis XYZWriter (release 2.4.3)
       H    17.06875   15.04224   -4.42627
       O    16.30429   15.56046   -4.69255
      H1    15.86617   14.92717   -5.26179
       H    17.82185   15.70237   -7.41261
       O    17.47775   16.54660   -7.14730
      H1    17.07236   16.49031   -6.30110
       H    13.38536   12.81420   -4.69587
       O    13.72251   13.72754   -4.70526
      H1    12.91484   14.10579   -4.29082
       H    14.05388   12.08724  -11.66386
       O    14.31128   12.67661  -12.38024
      H1    13.80982   13.50311  -12.10801
       H    14.46838    9.63796   -8.22621
       O    14.88927    9.25609   -9.03002
      H1    14.28127    9.58204   -9.67798
       H    15.93343   14.62622   -8.92430
       O    16.35904   13.88226   -8.46160
      H1    16.93348   13.54199   -9.16019
       H     8.99165   12.47605   -8.21694
       O     9.81082   12.54812   -7.79232
      H1     9.58555   12.63823   -6.85794
       H    11.79478   17.54137   -9.95112
       O    12.28685   16.76283   -9.69184
      H1    12.43916   16.01071  -10.32811
       H    10.63438   12.06813  -10.31490
       O    10.42447   12.91809  -10.86190
      H1    10.29241   12.64916  -11.75974
       H    12.34699   10.76661  -10.85539
       O    13.16126   10.85588  -10.36212
      H1    12.87347   10.96415   -9.47413
       H    11.17555   18.51741   -6.80327
       O    11.43782   18.42488   -7.70627
      H1    11.87844   17.56454   -7.64269
       H    17.75405   11.59771   -5.69986
       O    17.54592   10.90348   -6.30847
      H1    16.59727   10.76004   -6.16727
       H    13.04666   12.30646   -7.79874
       O    12.59184   11.40891   -7.77604
      H1    11.66163   11.67495   -7.69829
       H    10.49939   14.16818   -7.88060
       O    10.65266   15.11866   -7.71890
      H1    11.54780   15.21962   -8.08455
       H    14.47826   16.74674   -9.29710
       O    15.22979   16.15507   -9.24445
      H1    15.82291   16.54230   -8.60535
       H    14.04130   13.99010   -6.58572
       O    13.70358   13.90240   -7.48413
      H1    14.54409   13.84204   -7.99999
       H    12.62199   10.92366   -5.83878
       O    12.72242   11.08370   -4.92738
      H1    11.98016   10.78898   -4.43797
       H    10.21207   15.92505   -6.06655
       O    10.69137   16.32463   -5.32810
      H1    10.19016   17.14936   -5.13927
       H    13.55000   19.45612   -5.94972
       O    14.14900   18.78571   -5.65161
      H1    13.90559   17.93235   -6.07302
       H    11.82423   14.19478  -11.07083
       O    12.60709   14.69987  -11.35332
      H1    12.40820   15.10150  -12.19297
       H    13.27596   15.39037   -7.06521
       O    13.13566   16.30592   -6.76077
      H1    12.47750   16.22787   -6.05190

