63
frame 6 | Written by MDAnalysis XYZWriter (release 2.4.3)
       H    -1.02201   16.24016   -3.72080
       O    -1.75929   15.82172   -3.23098
      H1    -1.88894   16.48217   -2.55036
       H     1.25205   15.92283   -1.61458
       O     0.44105   15.57624   -1.15518
      H1    -0.05069   15.08455   -1.80874
       H    -2.09908   14.11191    3.39525
       O    -2.17675   15.05120    3.41232
      H1    -2.54961   15.27216    2.56072
       H     2.36754   19.55163    0.00479
       O     2.13456   19.07508    0.82441
      H1     1.23508   18.77883    0.59328
       H    -2.10592   19.47236    2.95262
       O    -1.22664   19.09615    2.93733
      H1    -0.73496   19.75135    3.43791
       H     2.49633   16.90180   -2.78899
       O     2.54587   15.92392   -2.75462
      H1     3.26198   15.71501   -2.07960
       H     0.67187   18.88279    4.58156
       O     0.86966   17.99538    4.93160
      H1     1.35358   18.18752    5.76836
       H     3.75343   15.07211    2.53857
       O     3.11889   15.47422    1.85548
      H1     2.62238   16.13426    2.34095
       H    -0.65599   15.84266    3.21433
       O     0.27795   16.17927    3.15976
      H1     0.34092   16.94381    3.82043
       H     1.90882   13.87862    1.36016
       O     1.33387   13.55789    0.63554
      H1     1.06446   14.27985    0.05633
       H     3.82488   18.60022   -0.70640
       O     3.95885   19.43520   -1.18256
      H1     3.58472   19.21513   -2.08025
       H    -4.64992   14.51757    2.31834
       O    -4.37210   15.11816    1.62001
      H1    -4.91130   15.87510    1.83592
       H    -0.71604   18.30065    1.51988
       O    -0.53206   18.02224    0.58811
      H1    -0.33291   17.09207    0.54465
       H    -5.15898   19.49216   -0.38838
       O    -4.70439   18.96160    0.23995
      H1    -4.59117   19.54053    1.04136
       H    -1.66418   17.97959   -0.81988
       O    -2.37501   18.27428   -1.39236
      H1    -3.04775   18.66510   -0.88379
       H    -6.93778   17.23134    1.40969
       O    -6.00476   17.26248    1.78812
      H1    -5.51541   17.83338    1.18918
       H     4.72649   18.45942    2.50663
       O     3.81262   18.29324    2.82961
      H1     3.25232   18.60263    2.11919
       H    -3.74606   17.34952   -2.25009
       O    -4.54458   17.02311   -2.66505
      H1    -5.05055   16.57726   -1.96403
       H     0.58528   13.13884    3.96033
       O     1.32873   13.54449    3.50540
      H1     1.15337   14.45229    3.22577
       H    -0.75843   18.34844    5.90617
       O    -1.45247   18.78568    6.33085
      H1    -1.87129   18.12608    6.93417
       H    -3.93575   15.10903    6.21775
       O    -3.11374   14.67096    5.95457
      H1    -2.95536   15.04770    5.07396

