63
frame 7 | Written by MDAnalysis XYZWriter (release 2.4.3)
       H   -14.16480  -13.59362  -17.02864
       O   -13.96654  -13.14894  -17.88487
      H1   -14.63557  -12.46797  -17.84254
       H   -18.37381  -14.03788  -11.39169
       O   -17.58979  -14.33291  -11.85303
      H1   -16.87201  -14.16833  -11.21083
       H   -12.65584   -9.67347  -13.74168
       O   -13.24955   -8.93742  -13.43252
      H1   -14.13313   -9.18883  -13.73078
       H   -17.79255  -13.54228  -17.13685
       O   -18.09388  -14.48585  -17.22711
      H1   -18.22195  -14.78461  -16.30645
       H   -14.38330  -11.09658  -15.77908
       O   -15.16173  -11.24669  -15.19690
      H1   -15.91243  -10.83089  -15.57507
       H   -15.59720  -10.09075  -11.88743
       O   -15.79396  -11.02937  -11.70303
      H1   -15.14599  -11.36197  -12.34678
       H   -14.96571  -12.95746  -15.00948
       O   -14.83341  -13.90644  -15.14275
      H1   -14.04770  -14.04503  -14.60273
       H   -17.63980  -11.62865  -18.10275
       O   -17.07111  -11.99576  -17.40386
      H1   -17.23520  -11.49570  -16.60956
       H   -15.99901   -8.02209  -14.01862
       O   -16.10549   -8.80933  -13.50303
      H1   -16.75270   -9.16612  -14.04157
       H   -19.25098   -7.14151  -13.35141
       O   -18.54945   -6.82564  -12.82219
      H1   -18.71622   -7.34178  -12.00305
       H   -18.12207   -7.93563   -9.29024
       O   -18.16658   -8.00365  -10.26146
      H1   -17.25871   -7.80450  -10.52925
       H   -19.21010  -12.80142   -9.66375
       O   -19.49821  -13.38995  -10.33055
      H1   -19.78798  -14.06522   -9.73012
       H   -12.66638  -12.96863  -12.34354
       O   -13.05073  -13.83949  -12.60310
      H1   -12.44092  -14.49728  -12.25616
       H   -16.55649  -15.43320  -12.96994
       O   -15.91345  -15.78237  -13.52877
      H1   -15.65471  -15.09488  -14.14107
       H   -15.07629   -7.28477  -10.70764
       O   -15.79037   -6.97257  -11.25276
      H1   -15.76286   -7.58283  -12.06493
       H   -18.46811  -12.56887  -14.04745
       O   -18.27472  -11.77208  -13.61985
      H1   -17.44335  -11.91735  -13.12116
       H   -18.24299  -10.29708  -14.96245
       O   -17.54804   -9.90570  -15.56086
      H1   -18.03337   -9.31070  -16.12213
       H   -19.64619  -10.79949   -8.23159
       O   -18.79728  -11.28009   -8.06488
      H1   -19.02760  -11.76116   -7.29505
       H   -14.84196  -12.10846   -9.41753
       O   -14.45503  -11.76683   -8.59432
      H1   -15.04997  -11.07483   -8.25916
       H   -18.42973  -16.94258  -15.17137
       O   -17.73174  -16.27641  -15.30856
      H1   -17.22709  -16.20730  -14.46734
       H   -14.48442  -14.27082  -10.89371
       O   -15.18483  -14.39229  -10.21080
      H1   -15.42050  -15.28161  -10.33664

