63
frame 6 | Written by MDAnalysis XYZWriter (release 2.4.3)
       H     9.02718  -11.99486    9.55238
       O     9.22239  -12.86218    9.13777
      H1     8.61725  -13.46708    9.64427
       H    11.66351  -16.66872   12.13751
       O    12.15149  -17.03531   11.40626
      H1    11.56665  -17.64556   10.96138
       H     9.02064  -13.79496   13.55650
       O     9.32653  -14.57076   14.00757
      H1     8.90539  -14.58832   14.89668
       H    15.07087  -18.49512   15.02963
       O    14.15939  -18.20794   14.90106
      H1    13.82144  -18.65598   14.07679
       H    12.20631  -13.39059   14.68563
       O    11.59935  -13.41926   15.42624
      H1    10.82633  -13.84305   15.05693
       H    16.43750  -16.06012   13.85770
       O    17.18006  -16.32679   13.28367
      H1    17.91887  -16.64952   13.78468
       H    10.15491  -16.03665   13.88937
       O    10.84366  -16.73911   13.96206
      H1    10.40798  -17.50075   13.62580
       H    14.07827  -13.02951   10.31045
       O    14.06714  -12.11334    9.98631
      H1    13.24007  -11.97182    9.56846
       H     6.91455  -17.53641   11.92112
       O     7.38853  -16.76892   12.22603
      H1     7.28320  -16.65092   13.17761
       H    11.26046  -11.91550   11.80582
       O    11.41438  -10.99562   12.09757
      H1    12.32463  -10.78436   12.19723
       H     9.27662  -17.36594    9.14534
       O     9.34460  -17.79793    9.97501
      H1     8.77119  -17.33711   10.51528
       H    16.50334  -17.95475   12.64276
       O    16.35031  -18.73363   12.07844
      H1    15.43761  -19.05807   12.27172
       H    14.01364  -13.85885   13.87319
       O    13.37632  -13.37640   13.42591
      H1    13.68793  -12.49765   13.42781
       H    12.90366  -14.48783   18.39605
       O    12.03622  -14.51229   18.05198
      H1    12.10567  -14.61372   17.08377
       H    12.59612  -14.63024    9.31362
       O    12.39145  -14.91983    8.40650
      H1    12.80471  -14.31157    7.75309
       H     9.88884  -18.37494   16.79166
       O    10.74706  -18.70196   16.45756
      H1    10.92505  -18.12972   15.71449
       H    13.15243  -16.59954    8.18739
       O    13.67769  -17.34814    7.85102
      H1    13.70388  -17.94673    8.57568
       H    13.25062  -15.56797   11.14133
       O    13.20971  -14.56260   10.94468
      H1    12.91091  -14.27165   11.78944
       H    15.62955  -15.45146   15.34814
       O    15.00256  -15.71188   14.68465
      H1    14.62342  -16.61089   14.92251
       H     7.12856  -15.26101    9.52385
       O     7.35889  -14.65712   10.23941
      H1     7.60236  -15.16158   11.04494
       H     9.21263  -15.71012    7.44872
       O     9.88355  -16.44545    7.60084
      H1    10.76052  -16.00450    7.66989

