63
frame 7 | Written by MDAnalysis XYZWriter (release 2.4.3)
       H   -12.42957    2.43848   13.51210
       O   -12.35625    1.55385   13.11419
      H1   -11.85929    1.06461   13.79499
       H   -16.87379   -4.81390   13.34111
       O   -16.12176   -4.19312   13.48380
      H1   -16.13767   -4.21314   14.43959
       H   -11.80242    1.34550   18.72098
       O   -11.16826    1.46291   18.02985
      H1   -10.38492    1.52213   18.58030
       H   -13.78761   -2.24388   15.42812
       O   -13.00504   -1.68207   15.30290
      H1   -12.35384   -2.42980   15.33183
       H   -11.19426   -3.79869   17.09413
       O   -11.52243   -4.60625   17.59937
      H1   -11.19803   -5.29716   17.03681
       H    -9.03610   -4.30941   19.98548
       O   -10.00027   -4.57615   19.97387
      H1   -10.37086   -4.58024   19.05704
       H   -15.17858   -1.29175   12.92711
       O   -14.90138   -0.46997   13.31968
      H1   -13.98374   -0.66304   13.52854
       H   -10.26709   -2.62046   19.69549
       O   -10.25215   -1.67918   19.62873
      H1   -10.91218   -1.48362   18.96799
       H   -16.96062    0.84940   18.64286
       O   -17.64542    0.77932   19.32453
      H1   -18.17528   -0.04191   19.16518
       H   -13.74736   -6.70938   16.40309
       O   -14.09295   -5.85462   16.02920
      H1   -15.02097   -5.98704   15.81459
       H   -11.66134   -3.62918   13.24141
       O   -10.90131   -3.03237   13.25052
      H1   -10.82790   -2.57858   12.41157
       H   -13.55202   -0.84277   18.70060
       O   -12.86175   -1.35634   18.29289
      H1   -12.95766   -1.22940   17.31433
       H   -15.13740   -3.19034   17.02306
       O   -15.22808   -2.94823   16.05278
      H1   -15.69252   -2.09207   15.98161
       H    -9.74998   -2.09361   17.42522
       O   -10.33568   -2.31674   16.74998
      H1    -9.79723   -2.40326   15.92499
       H    -8.67365   -0.25307   13.85649
       O    -8.73032    0.66329   14.01000
      H1    -9.63187    0.73231   14.45247
       H   -15.20465    3.49429   16.92573
       O   -14.69598    3.04561   16.25627
      H1   -15.46521    2.98173   15.60555
       H   -15.12359    1.58178   17.21113
       O   -15.50141    0.81565   17.77445
      H1   -14.73458    0.75986   18.43486
       H   -16.44411    0.09155   16.02069
       O   -16.65287   -0.63746   15.39958
      H1   -16.06118   -0.46389   14.68886
       H   -13.58085   -4.20412   17.85534
       O   -14.24542   -3.84975   18.44390
      H1   -13.83668   -3.01371   18.70857
       H   -13.21169   -4.85110   14.93828
       O   -13.02345   -4.37307   14.09699
      H1   -13.92715   -4.19648   13.84930
       H   -11.19612    0.61614   16.26223
       O   -11.22754    0.39205   15.31061
      H1   -11.92528   -0.31817   15.28748

