63
frame 7 | Written by MDAnalysis XYZWriter (release 2.4.3)
       H    -7.62536   11.65614  -12.71358
       O    -7.71728   12.60386  -12.79470
      H1    -7.99632   12.98220  -11.90344
       H    -3.91815   13.89110  -11.16148
       O    -4.26448   13.02800  -10.93636
      H1    -4.27188   12.48382  -11.70987
       H    -3.62210   14.28865  -15.46080
       O    -2.93765   14.92623  -15.57025
      H1    -3.31108   15.45976  -16.28476
       H    -3.28141   16.26665  -12.83324
       O    -3.48388   17.01212  -13.40623
      H1    -3.00464   16.83424  -14.25593
       H    -6.53114   12.16900  -15.99145
       O    -5.86067   11.50309  -15.71313
      H1    -6.22357   10.59662  -15.59959
       H    -1.78651   13.49010  -13.80109
       O    -1.56551   13.87423  -12.93833
      H1    -0.68343   14.37928  -13.04164
       H   -11.57368   15.88131  -13.78428
       O   -11.63086   14.95642  -13.58047
      H1   -10.95411   14.32283  -13.94928
       H    -5.80844   14.24093  -10.43315
       O    -6.61292   14.74236  -10.20461
      H1    -6.26140   15.63107  -10.11590
       H    -8.64535   18.50540  -13.22568
       O    -8.22875   18.44645  -12.35800
      H1    -7.53328   17.77023  -12.52097
       H    -6.21648   10.85004   -8.97546
       O    -5.50028   11.38942   -8.43667
      H1    -5.44037   12.21994   -8.92229
       H    -7.37850    9.88014  -11.76437
       O    -7.60455    9.77949  -12.68905
      H1    -8.53506    9.41268  -12.76291
       H    -3.68293   11.02608  -13.82022
       O    -3.47993   11.97008  -13.70148
      H1    -4.33340   12.42040  -13.85574
       H    -5.16046   17.04856  -13.31115
       O    -6.12702   16.96757  -13.26386
      H1    -6.39860   17.24241  -14.13810
       H    -8.09753   15.81814  -15.64594
       O    -8.01965   14.97426  -15.11099
      H1    -7.13160   14.85933  -14.76825
       H    -8.10658   13.38249  -17.74653
       O    -7.53725   13.23592  -17.04788
      H1    -7.85993   13.83717  -16.33050
       H    -6.26450   13.68815  -13.20792
       O    -5.59177   14.14751  -13.71190
      H1    -5.49707   15.08531  -13.42097
       H    -6.73669    9.22818  -14.29301
       O    -6.64455    9.00786  -15.23365
      H1    -7.58182    9.03812  -15.58350
       H    -2.42229   14.91446  -11.82709
       O    -3.21864   15.37345  -11.40433
      H1    -2.96492   15.83038  -10.59592
       H    -9.14694   12.80329  -14.29788
       O   -10.01864   12.73387  -14.70868
      H1   -10.42908   11.83951  -14.66628
       H    -9.94114   13.77418  -10.54927
       O    -9.09453   13.46914  -10.10569
      H1    -8.55784   14.28998  -10.26123
       H    -3.20564   10.81700  -17.78917
       O    -3.17401   10.71161  -16.83055
      H1    -3.97902   11.09720  -16.45759

