63
frame 7 | Written by MDAnalysis XYZWriter (release 2.4.3)
       H    17.30791   15.82228    3.09466
       O    16.98016   15.63474    2.20353
      H1    17.54002   14.91009    1.76479
       H    16.47670   13.17914    4.29286
       O    17.05616   12.49455    3.81326
      H1    16.63268   11.64753    3.74571
       H    16.62317   14.76759   -3.13701
       O    16.04475   14.86187   -3.87906
      H1    15.25065   14.42919   -3.60096
       H    14.02648   16.72554    2.97119
       O    14.20572   15.83161    2.67014
      H1    15.12975   15.78002    2.50653
       H    17.70909   12.86937    1.78166
       O    17.80952   13.33684    0.93966
      H1    16.97071   13.26487    0.46451
       H    18.62270   16.80951    1.29952
       O    19.22582   17.41743    0.88067
      H1    18.72565   18.09946    0.39919
       H    17.66440    9.67343    2.79121
       O    16.70668    9.58412    3.01980
      H1    16.70020    8.95681    3.79927
       H    19.40714   10.15234   -0.32663
       O    19.44086    9.25354    0.03338
      H1    18.72363    8.72254   -0.21758
       H    17.95944   11.76564    5.67903
       O    17.54491   11.41068    6.48493
      H1    18.21931   10.84484    6.85330
       H    12.46622   15.74976    1.50749
       O    11.84825   15.50579    0.82134
      H1    11.55646   16.31670    0.36403
       H    12.55482   14.44359   -0.31094
       O    12.96240   13.72601   -0.87663
      H1    12.25254   13.73439   -1.62337
       H    16.62293   17.49585    1.62840
       O    16.41711   18.38965    1.39774
      H1    15.43004   18.49983    1.50147
       H    15.65552   15.18833    5.20651
       O    15.47004   14.25911    5.27829
      H1    15.96698   13.90229    6.08209
       H    19.96511   12.18903   -1.37162
       O    19.30360   11.63492   -0.97667
      H1    18.81742   12.31971   -0.41357
       H    19.01578   15.00542    5.36231
       O    18.29985   14.95127    4.67167
      H1    18.14632   14.01268    4.44020
       H    16.11184   17.57732    5.30980
       O    16.91883   17.60199    4.75640
      H1    17.58840   17.17263    5.27368
       H    14.64158   13.13685   -0.45019
       O    15.54504   12.73033   -0.55335
      H1    15.47361   11.82285   -0.84469
       H    17.29642   19.18081   -0.01155
       O    18.06841   19.40450   -0.56880
      H1    17.88321   19.00374   -1.42686
       H    15.00486   10.34255    2.71781
       O    14.13618   10.56692    3.11706
      H1    14.22572   10.55352    4.08818
       H    13.47407   13.89182    3.45263
       O    13.03825   13.06074    3.14901
      H1    13.63075   12.28576    3.17119
       H    18.45592   13.74380   -3.65214
       O    18.63000   14.17750   -2.80738
      H1    19.17128   14.94999   -3.10562

