63
frame 0 | Written by MDAnalysis XYZWriter (release 2.4.3)
       H     4.08446   12.21206  -12.29233
       O     4.07699   11.86166  -11.42074
      H1     3.16831   11.77026  -11.16060
       H     0.56350    6.88610  -10.07217
       O     0.23037    6.02115  -10.34305
      H1     1.04888    5.47026  -10.44092
       H     3.51021    8.59232  -11.85551
       O     4.24605    8.89700  -11.26562
      H1     4.20851    9.85965  -11.27859
       H     6.15018    8.45759  -14.47501
       O     5.84101    8.84784  -15.30382
      H1     6.74405    9.10088  -15.61534
       H     3.13009    5.21894  -10.25189
       O     2.61139    4.76522  -10.94538
      H1     2.96645    5.11733  -11.77313
       H     6.43762    6.37752   -9.07111
       O     6.53382    5.58757   -9.69434
      H1     6.18346    5.75741  -10.61064
       H     0.21588    6.16383  -12.11206
       O     0.51937    6.29345  -13.06532
      H1     1.28199    5.73382  -13.33670
       H     1.27479   10.27091  -10.41813
       O     1.46440   11.11787  -10.85130
      H1     1.33400   11.77489  -10.21861
       H     3.82432    8.87166  -15.26293
       O     2.97905    9.12766  -15.66625
      H1     2.38786    9.05107  -14.91948
       H     5.42909    7.06687   -7.33814
       O     6.12264    7.42055   -7.86375
      H1     5.86203    8.34544   -7.79265
       H     5.68135   10.93687   -8.21916
       O     5.34663   10.14735   -7.68398
      H1     4.51717    9.84103   -8.02432
       H     7.91832   10.27610  -10.96247
       O     7.88925   11.09881  -11.50285
      H1     6.99115   11.50646  -11.47290
       H     3.72964    8.81977   -9.72603
       O     3.42323    8.78219   -8.79856
      H1     3.69464    7.88006   -8.62954
       H     6.20634   10.83646  -14.62643
       O     6.04345   11.53448  -14.02962
      H1     6.63169   12.30823  -14.24744
       H     5.18928    5.86202  -15.78238
       O     5.37558    5.41193  -14.92945
      H1     5.89970    5.97257  -14.32620
       H     7.09669    6.91223  -12.24120
       O     6.13262    6.80015  -12.39227
      H1     5.71577    7.59978  -12.10198
       H    -0.78925    9.03835  -13.19155
       O    -1.16633    9.12664  -12.34374
      H1    -1.06240   10.15074  -12.21542
       H     1.36891    9.12903  -12.52330
       O     1.87788    8.53952  -13.05012
      H1     1.35632    7.75719  -13.04328
       H    -0.02268    8.92514   -8.70718
       O     0.69941    8.61945   -9.27860
      H1     1.53876    8.79299   -8.86346
       H     4.37484    4.80514   -8.44767
       O     3.76684    5.56658   -8.56593
      H1     2.92157    5.16309   -8.32981
       H     2.88206    4.14268  -13.39892
       O     2.99336    5.07373  -13.42017
      H1     3.84392    5.28270  -13.81960

