63
frame 8 | Written by MDAnalysis XYZWriter (release 2.4.3)
       H     8.47344    8.96217   11.31619
       O     8.24329    8.08619   11.03543
      H1     8.03018    8.20919   10.11597
       H     5.42105   12.88482   14.85885
       O     5.93550   12.43518   15.57636
      H1     6.00067   11.53080   15.19348
       H     3.52111   14.61644   13.67330
       O     3.72511   13.66759   13.55447
      H1     4.14131   13.51574   12.67665
       H     3.56766    6.66399   15.09134
       O     4.34676    7.20184   15.33425
      H1     3.92476    8.09765   15.51023
       H     8.53100    7.02625   15.31527
       O     8.10676    6.87110   14.45778
      H1     7.67452    5.98863   14.40384
       H     4.78885    6.98724   13.53254
       O     5.11700    7.01290   12.63754
      H1     6.05002    7.26973   12.73464
       H     8.00556    7.59195    7.71103
       O     7.50928    8.04857    8.39740
      H1     7.26300    8.88952    8.03460
       H     9.54094   13.03486   15.27523
       O     8.72351   13.29476   14.88905
      H1     8.00819   12.91321   15.40779
       H     2.88670   10.20128   15.12006
       O     2.65895    9.43313   15.64857
      H1     2.84665    9.73663   16.53425
       H     5.57422   13.76869   10.61934
       O     5.30017   12.84268   10.84163
      H1     4.46711   12.74354   10.31845
       H     6.33496   11.56732   10.55212
       O     6.94343   10.84643   10.57236
      H1     7.71301   11.22188   10.98935
       H     1.35548    8.30369    9.32882
       O     0.88616    8.84666    9.98748
      H1     1.63719    9.09194   10.61480
       H     9.06618   12.48400   12.99143
       O     9.24230   12.00422   12.20891
      H1     9.92363   11.40996   12.35783
       H     7.98960   11.21303    7.50149
       O     7.16518   11.06770    8.01473
      H1     7.39769   11.31560    8.95932
       H     2.46011    8.53473   12.16806
       O     2.90347    9.37616   11.99261
      H1     3.73133    9.21966   12.42660
       H    10.71686   14.72307   11.00611
       O    10.76742   13.77192   10.86296
      H1    10.03463   13.24718   11.23800
       H     3.07275    5.89266   10.34113
       O     3.70096    6.61501   10.35422
      H1     3.97486    6.77267   11.26104
       H     5.70504    9.85386   13.59730
       O     5.31088   10.33745   12.84119
      H1     6.04849   10.53709   12.22710
       H     2.67192   10.77773   13.14671
       O     2.30620   11.38337   13.78334
      H1     2.88895   12.17557   13.67293
       H     1.87368   11.65644    9.80690
       O     2.81060   11.58923    9.83586
      H1     3.12609   10.91756   10.43139
       H     6.90290    8.34968   14.75415
       O     6.42907    9.10748   15.09329
      H1     5.97566    8.73765   15.88462

