63
frame 8 | Written by MDAnalysis XYZWriter (release 2.4.3)
       H    -3.94875   14.38405  -10.16935
       O    -4.38045   13.52335   -9.99745
      H1    -4.70096   13.20023  -10.85337
       H    -3.25382   16.95241  -13.17035
       O    -3.48012   17.86793  -13.54804
      H1    -2.80613   18.04170  -14.24911
       H     0.44987   16.82309  -13.28461
       O     0.03604   15.97234  -12.99515
      H1     0.08209   16.07172  -12.04321
       H    -1.22537   19.18715   -5.38890
       O    -0.31596   18.90591   -5.15957
      H1     0.09328   18.55591   -5.95131
       H    -1.45426   18.87288  -10.54259
       O    -1.42334   18.66855   -9.58399
      H1    -2.19205   19.13340   -9.28435
       H    -1.25603   15.60561   -5.27694
       O    -1.24002   16.17126   -4.47770
      H1    -0.62936   16.89427   -4.65719
       H    -1.70096   19.06564  -14.03522
       O    -1.67466   19.08186  -15.00081
      H1    -1.28108   18.28438  -15.40077
       H    -1.65187   12.59207  -13.98712
       O    -1.69813   13.39907  -13.45007
      H1    -0.72948   13.55187  -13.23684
       H    -6.20197   14.87727  -10.92526
       O    -6.75274   15.61358  -10.77015
      H1    -6.29879   16.05206  -10.03385
       H     1.22550   14.30713   -6.73193
       O     0.85313   14.69270   -7.54150
      H1     1.40426   14.58820   -8.32626
       H     2.93201   17.74951  -11.16901
       O     2.25705   18.36091  -11.42363
      H1     2.57773   19.22735  -11.19682
       H     1.98673   17.98511  -14.49108
       O     1.24869   18.18185  -13.96134
      H1     1.52353   18.26898  -13.07243
       H    -5.16101   16.36356   -7.88794
       O    -5.35001   16.93504   -8.68178
      H1    -4.92373   17.79069   -8.35890
       H    -6.25671   14.49043   -6.02411
       O    -5.59011   15.16693   -6.31310
      H1    -4.86522   15.03819   -5.63547
       H     2.04330   13.59111  -10.66310
       O     2.37328   13.62472   -9.72982
      H1     3.09221   14.19935   -9.64649
       H    -3.37915   19.74478   -4.70265
       O    -3.03896   19.32723   -5.52313
      H1    -3.20904   18.38213   -5.38236
       H    -2.09857   14.03694   -5.99881
       O    -1.79932   14.61024   -6.69887
      H1    -0.85559   14.65963   -6.74840
       H    -2.75583   14.68561  -12.57889
       O    -3.23831   15.46120  -12.17280
      H1    -2.66089   15.80735  -11.46896
       H    -2.86560   12.75797   -9.04976
       O    -1.99771   12.41733   -8.81645
      H1    -1.65042   13.28509   -8.51917
       H    -2.21370   15.70186   -8.55908
       O    -1.84962   15.91281   -9.43501
      H1    -1.74266   16.88559   -9.43495
       H     0.92145   16.48246   -7.84284
       O     1.04479   17.44967   -7.86964
      H1     0.54858   17.68406   -8.70584

