63
frame 8 | Written by MDAnalysis XYZWriter (release 2.4.3)
       H   -10.81718    6.02977   13.98159
       O   -11.12446    5.72311   14.92402
      H1   -11.81286    6.33228   15.21377
       H    -9.33692   10.20367   15.12274
       O    -9.82895   10.68876   15.72753
      H1    -9.14222   11.25238   16.08016
       H   -11.28619   13.36819   15.11498
       O   -11.70618   12.46182   15.21164
      H1   -10.94303   11.80629   15.40400
       H   -13.63869    3.84255   14.84212
       O   -13.23804    4.29106   14.10234
      H1   -12.36316    4.68610   14.43843
       H   -12.21250   10.00319   17.46196
       O   -13.05233   10.24058   17.77123
      H1   -13.41208   10.93399   17.20391
       H   -13.60678    8.67404   14.71009
       O   -12.83338    8.42491   15.24327
      H1   -13.11483    8.46053   16.16870
       H    -7.21267    1.45382   14.89462
       O    -6.83925    2.23575   15.25223
      H1    -7.60158    2.96009   15.19129
       H    -7.30743   10.86668   18.70158
       O    -7.87696   10.11448   18.87558
      H1    -7.85858   10.04633   19.82664
       H    -9.13252    5.45304   13.24613
       O    -9.71395    5.86714   12.56983
      H1   -10.27467    5.12590   12.21788
       H    -4.68086    6.08843   18.94177
       O    -4.27945    5.28650   19.26501
      H1    -3.99114    4.74799   18.49813
       H   -13.98987    6.76945   17.03173
       O   -13.43069    7.12187   17.76583
      H1   -12.76929    6.42616   17.86684
       H    -9.19222    7.66153   17.06236
       O    -9.00879    6.99646   16.35710
      H1    -9.89480    6.98938   15.92231
       H    -7.14743    7.57300   15.70549
       O    -6.56928    7.46598   14.95878
      H1    -5.89168    8.19163   15.15970
       H   -10.52365    9.54046   17.00748
       O   -10.54801    8.94733   17.79327
      H1    -9.98478    9.40325   18.42297
       H    -7.84135    8.65334   14.16885
       O    -8.28220    9.37663   13.70834
      H1    -7.66194   10.11659   13.61545
       H    -8.94386    5.06205   15.27005
       O    -8.20476    4.82938   14.69851
      H1    -7.59630    5.55795   14.66621
       H    -8.68210    6.45906   11.10126
       O    -8.20039    6.95616   10.44419
      H1    -7.30674    7.05291   10.70395
       H   -11.89813    3.87254   17.42434
       O   -12.08642    4.69078   18.00211
      H1   -11.33882    4.80448   18.62919
       H    -6.57091    4.84595   17.78399
       O    -7.32960    5.38031   17.99118
      H1    -7.64199    5.71990   17.14939
       H    -4.99974   10.18769   15.56639
       O    -4.64742    9.27289   15.72621
      H1    -3.73045    9.44431   15.52389
       H    -5.01162    8.23218   17.66578
       O    -4.81861    7.99427   18.60793
      H1    -5.57050    8.27597   19.15950

