63
frame 8 | Written by MDAnalysis XYZWriter (release 2.4.3)
       H    -0.19181  -11.80596   -6.87167
       O    -0.60917  -12.70517   -6.81184
      H1    -1.28373  -12.68381   -6.12229
       H    -1.62099  -10.27596  -13.55125
       O    -1.07764   -9.50113  -13.35092
      H1    -1.07014   -9.07583  -14.23497
       H     2.05188  -10.92838   -5.50835
       O     1.22100  -10.37455   -5.69641
      H1     0.79031  -10.57085   -4.85015
       H     2.88362   -9.86229   -9.33943
       O     2.65762   -9.00623   -9.71868
      H1     3.37729   -8.45689   -9.34885
       H     4.17017  -11.37597   -5.65747
       O     3.42793  -11.97520   -5.78779
      H1     3.53481  -12.66381   -5.13927
       H     3.03038  -11.67409   -7.60954
       O     2.86997  -11.53002   -8.56339
      H1     1.99889  -11.85396   -8.71939
       H    -1.82417  -14.08922   -9.57466
       O    -1.20275  -14.00783  -10.33875
      H1    -0.56344  -13.29941   -9.99763
       H     2.16889   -8.41412   -7.87498
       O     1.83105   -8.05117   -6.99618
      H1     1.42240   -8.74603   -6.45221
       H     0.29260  -16.43515  -13.55025
       O    -0.37193  -15.76257  -13.71864
      H1     0.08883  -14.90395  -13.51558
       H     0.74643  -11.56053  -10.44041
       O     0.35173  -11.99209   -9.72287
      H1    -0.13843  -11.28231   -9.28727
       H    -2.35544  -13.09226   -7.71609
       O    -2.96935  -13.48960   -8.28701
      H1    -3.71145  -12.81134   -8.38472
       H    -2.01665   -9.89026   -8.82319
       O    -1.22229  -10.22558   -8.42009
      H1    -1.47567  -10.08038   -7.44374
       H     4.54452  -10.23223  -12.88239
       O     4.13169  -10.84265  -13.54217
      H1     3.18007  -10.95107  -13.22239
       H    -3.24218  -12.36768  -12.80297
       O    -2.26540  -12.33723  -12.69592
      H1    -2.15591  -12.85145  -11.90198
       H     2.49015  -14.35466   -9.85248
       O     1.84668  -14.95645   -9.45070
      H1     0.98983  -14.81553   -9.90987
       H     4.07446  -12.63413   -9.80422
       O     4.23409  -13.43083  -10.30473
      H1     4.25450  -13.32130  -11.28907
       H     1.79725  -14.89739   -7.24914
       O     1.62655  -14.70700   -6.31172
      H1     1.04643  -13.93320   -6.33100
       H     0.31941  -12.98401  -14.51101
       O     0.31146  -13.15963  -13.56172
      H1    -0.60583  -12.84092  -13.37521
       H    -3.60018   -8.44907   -8.89815
       O    -3.66461   -9.40907   -9.10649
      H1    -3.85764   -9.89836   -8.29648
       H    -2.10971   -7.25489  -10.95215
       O    -2.01999   -7.31325  -11.92159
      H1    -1.61581   -8.18007  -12.04898
       H     0.87416  -11.63021  -12.85964
       O     1.17390  -10.84430  -12.30576
      H1     0.67017  -10.04950  -12.61836

