63
frame 7 | Written by MDAnalysis XYZWriter (release 2.4.3)
       H     1.96854    3.14441    3.92355
       O     1.79074    3.70648    4.70708
      H1     2.53818    4.24743    4.80918
       H     2.67321   -2.89365    7.48360
       O     3.28277   -3.61129    7.25510
      H1     2.72870   -4.35573    7.59332
       H     4.60781   -0.80342    5.80516
       O     3.78366   -0.22613    5.76600
      H1     4.01650    0.60485    6.25618
       H     0.26175   -2.20663    2.74310
       O     1.00656   -2.26154    3.41217
      H1     0.78508   -1.65393    4.10640
       H     3.74883   -4.35682    5.27117
       O     4.23181   -4.86164    4.67772
      H1     3.71874   -4.86894    3.81897
       H    -2.46405    1.81716    3.89930
       O    -3.43607    1.88180    3.96656
      H1    -3.74577    1.53176    3.11859
       H    -0.30176   -3.61406    7.34086
       O    -1.12819   -3.13218    7.19951
      H1    -0.84496   -2.32608    6.66110
       H     3.26858   -0.52523   10.19571
       O     3.28037   -1.47730   10.27311
      H1     4.00195   -1.74375    9.69634
       H     3.42173   -0.85943    3.85932
       O     3.39111   -0.62754    2.94207
      H1     2.49997   -0.97755    2.72509
       H    -2.08329   -1.07331    9.97338
       O    -1.23022   -0.89910    9.53714
      H1    -1.23294   -1.65756    8.87825
       H     0.87738   -0.70148    6.39119
       O     0.19307   -0.68247    5.68135
      H1    -0.20128    0.17388    5.49925
       H     2.85411   -0.85062    7.19483
       O     2.04452   -1.12577    7.63693
      H1     2.26667   -1.01346    8.56075
       H    -1.14610    3.60603    7.47534
       O    -0.48471    3.43697    6.72151
      H1    -0.38812    4.25905    6.27222
       H    -2.38384   -3.91124    5.72257
       O    -2.38202   -4.61316    5.07717
      H1    -3.33198   -4.66695    4.77480
       H     0.91482    2.54749    7.31276
       O     1.58611    2.25509    7.93836
      H1     2.49757    2.35059    7.54958
       H     0.24819    0.23032    9.78079
       O     1.04617    0.83927    9.97911
      H1     1.34956    1.17193    9.04935
       H    -0.02554   -2.81642   11.87416
       O     0.37303   -1.92929   11.79538
      H1    -0.17999   -1.62739   11.07223
       H     0.46125   -5.87610    7.48450
       O     1.10658   -5.12410    7.64902
      H1     1.34549   -5.20913    8.59543
       H    -0.28693    2.41749    5.03111
       O    -0.71829    1.91553    4.33257
      H1     0.01976    1.71677    3.73091
       H     1.75458    1.87543    2.03501
       O     1.69487    1.45842    2.90396
      H1     2.53102    0.89183    2.96262
       H     4.94286    1.24377    7.88579
       O     4.34028    1.80422    7.30818
      H1     5.09386    1.97174    6.65921

