63
frame 8 | Written by MDAnalysis XYZWriter (release 2.4.3)
       H    17.17268   -2.56767   12.86904
       O    16.98982   -2.73631   13.83305
      H1    17.11795   -1.91301   14.32166
       H    17.94213   -3.89016   11.19472
       O    18.12153   -2.92707   11.35755
      H1    18.80332   -2.80212   12.00192
       H    15.35252   -2.07397    9.75666
       O    15.35817   -2.13684   10.71772
      H1    16.18310   -2.65585   10.97210
       H    11.39209   -5.97505   14.44408
       O    11.54377   -6.43333   13.63349
      H1    10.87741   -7.11581   13.48174
       H    13.50567   -1.69488   13.24774
       O    13.39509   -0.73230   13.25842
      H1    13.67983   -0.57802   12.30661
       H    15.89083    0.45938   14.99389
       O    14.99136    0.84592   15.03855
      H1    14.45967    0.33530   14.38759
       H    13.98827   -8.11180   15.21133
       O    14.12660   -7.84049   14.29315
      H1    13.76196   -6.98396   14.11720
       H    16.40932   -0.67396   11.20163
       O    16.89831    0.13134   11.13878
      H1    17.77214   -0.11115   10.91624
       H    16.51278   -3.70869   17.41053
       O    16.34755   -3.07612   18.11579
      H1    16.65817   -3.53076   18.93300
       H    11.39901   -5.84119   17.19070
       O    11.13753   -5.30681   16.43268
      H1    11.90031   -4.71092   16.29746
       H    19.53781   -4.46208   15.17050
       O    18.80910   -4.60705   14.56598
      H1    18.42368   -3.72902   14.48525
       H    13.59157   -6.70025   11.82197
       O    14.38767   -6.16265   11.68986
      H1    14.26848   -5.38142   12.27835
       H    11.61442   -1.78890   16.49520
       O    12.51047   -1.46787   16.27150
      H1    12.43352   -1.30585   15.29417
       H    12.23302   -1.86468   10.30972
       O    12.07189   -0.89274   10.39721
      H1    11.29718   -0.86778   11.10225
       H    13.27959   -3.29336   16.35594
       O    13.83598   -4.08673   16.27533
      H1    13.89631   -4.33333   17.23074
       H    15.65847   -4.61041   15.67422
       O    16.48524   -5.01923   16.04095
      H1    17.26540   -4.79450   15.54001
       H    17.78175   -6.30883   10.57238
       O    17.03183   -5.73179   10.72959
      H1    16.49158   -6.02029   11.47768
       H    14.00311   -4.06036   14.16390
       O    14.17435   -3.56447   13.37174
      H1    14.95141   -2.99578   13.47682
       H    11.88751   -3.82073   10.53893
       O    12.76119   -3.54872   10.13202
      H1    13.37360   -3.41754   10.81769
       H     9.57052   -4.08800   11.25440
       O    10.36939   -4.65556   11.35165
      H1    10.35950   -5.14222   12.17346
       H     9.60383   -3.00603   14.15034
       O    10.52068   -2.64960   14.10571
      H1    10.42964   -2.04567   13.34559

