63
frame 7 | Written by MDAnalysis XYZWriter (release 2.4.3)
       H   -15.76200   -5.62176    9.87055
       O   -16.38532   -6.38358    9.85816
      H1   -17.16793   -6.03435    9.44070
       H   -13.46385   -8.34297    8.45454
       O   -14.19296   -8.81840    8.85738
      H1   -14.83683   -8.14621    9.05143
       H    -9.81566   -4.60744    8.98532
       O    -9.29945   -4.60762    8.16189
      H1    -9.27673   -5.53034    7.88623
       H   -14.26562   -5.25920   11.47929
       O   -14.50502   -4.58530   10.85918
      H1   -13.75957   -4.56600   10.27736
       H    -7.32557   -3.40990    8.64172
       O    -7.45321   -2.71103    9.35022
      H1    -6.52282   -2.44240    9.48610
       H   -10.58169   -3.73606    7.16159
       O   -11.03709   -3.04641    6.67925
      H1   -10.30436   -2.46187    6.39508
       H   -12.56650    0.22467   11.31522
       O   -12.24682   -0.09805   10.49305
      H1   -12.97849   -0.56176   10.05921
       H   -13.38867   -7.33455   11.87445
       O   -13.94462   -7.07450   12.60706
      H1   -13.37494   -6.41211   13.11609
       H   -12.97631   -3.57388    4.25798
       O   -13.78808   -3.47054    4.76637
      H1   -13.76485   -4.09975    5.48601
       H   -12.14556   -0.56054    7.06444
       O   -12.39116    0.00108    6.30567
      H1   -12.99122   -0.41705    5.61809
       H   -12.07816   -5.93241    5.12330
       O   -11.92488   -6.88431    5.08827
      H1   -12.52049   -7.33103    4.54235
       H   -14.88370   -1.93825    8.65617
       O   -14.81988   -1.34470    9.41052
      H1   -15.06954   -1.88313   10.12889
       H    -8.97818   -5.88700   10.69535
       O    -9.68046   -5.58351   11.30796
      H1    -9.27590   -4.90822   11.85329
       H   -11.42769   -7.84306    8.11072
       O   -12.19896   -7.49168    7.75737
      H1   -11.96861   -7.28624    6.75383
       H   -11.66134   -3.62918   13.24141
       O   -10.90131   -3.03237   13.25052
      H1   -10.82790   -2.57858   12.41157
       H   -12.33685   -6.81837    9.86758
       O   -11.98107   -7.22191   10.66020
      H1   -11.29330   -6.63217   10.93380
       H    -9.33604   -2.54077   10.12354
       O   -10.23855   -2.29787   10.44994
      H1   -10.32123   -1.31763   10.31279
       H   -10.86272    0.29345    9.37010
       O   -10.05476    0.59865    8.93409
      H1    -9.59910    1.31507    9.46232
       H   -13.46509   -5.88707    7.28520
       O   -14.05311   -5.50261    6.63563
      H1   -14.63585   -4.84555    7.12001
       H   -15.86326   -2.95808    7.15516
       O   -15.52835   -3.47900    7.86920
      H1   -16.25571   -3.74295    8.41691
       H   -11.61785   -3.36949    9.72197
       O   -12.12917   -4.08662    9.26259
      H1   -12.09608   -3.89021    8.32930

