63
frame 0 | Written by MDAnalysis XYZWriter (release 2.4.3)
       H    -5.95997    5.73208   -5.51779
       O    -5.63044    4.98652   -6.07275
      H1    -5.93130    4.30471   -5.42528
       H    -4.97334    9.74574   -8.01034
       O    -5.86657    9.95594   -7.67621
      H1    -6.39304    9.49322   -8.34690
       H     0.39929    7.66441   -3.75630
       O     0.49535    7.37677   -4.66973
      H1     0.09844    7.97448   -5.34227
       H    -3.77048    9.94335    0.07813
       O    -3.54129    9.08338   -0.32193
      H1    -4.15102    8.87777   -1.09810
       H    -2.75949    7.17158   -6.52751
       O    -2.70447    8.11861   -6.78836
      H1    -2.94380    8.15154   -7.72939
       H    -3.20014    9.38367   -5.18621
       O    -3.56304    9.75719   -4.42840
      H1    -4.05014    9.08477   -3.88942
       H    -7.03769   12.83097   -4.60565
       O    -7.91353   13.21563   -4.73193
      H1    -8.24074   12.99467   -5.57706
       H    -5.76393    4.88489   -3.27808
       O    -6.01730    5.37442   -2.46202
      H1    -5.47495    5.07695   -1.75168
       H    -0.49977    5.96280   -2.23598
       O    -0.33656    4.98821   -2.08448
      H1    -0.84382    4.82150   -1.23038
       H    -2.40763    9.83560   -1.54079
       O    -1.99506   10.35738   -2.23145
      H1    -2.47142   10.18509   -3.04415
       H    -4.15783   11.51269   -4.67797
       O    -4.45042   12.42366   -4.67366
      H1    -4.63411   12.69398   -5.59965
       H    -3.57139    5.20299   -6.03175
       O    -2.69069    5.53849   -5.76235
      H1    -2.32856    4.78200   -5.26089
       H    -6.78263   11.46203   -0.80858
       O    -7.40100   10.92358   -0.25147
      H1    -6.84379   10.15411    0.06983
       H    -0.26440    9.96237   -5.57871
       O    -0.34971    9.35872   -6.35496
      H1    -1.26370    9.04708   -6.43502
       H    -5.38036   12.49395   -2.47709
       O    -5.71718   12.70919   -1.55731
      H1    -4.97674   12.46597   -0.95533
       H    -5.46934   13.19670   -7.98060
       O    -5.18069   12.54315   -7.29928
      H1    -5.63165   11.72298   -7.58308
       H     0.42904   12.16392   -3.60358
       O     0.37581   11.33718   -4.06709
      H1     1.05979   10.74410   -3.68753
       H    -3.05223   13.41399   -4.06835
       O    -2.55911   14.20250   -4.18470
      H1    -1.98367   14.28870   -3.44200
       H    -5.87413    8.38012   -2.31271
       O    -4.95333    8.19991   -2.55208
      H1    -4.88304    7.25398   -2.66671
       H     0.60406    8.45976   -1.82003
       O    -0.21530    7.99397   -2.05386
      H1    -0.88254    8.63468   -2.28868
       H    -7.44275    7.75253   -4.75792
       O    -6.55670    7.48832   -5.09738
      H1    -6.44512    8.21619   -5.69881

