63
frame 8 | Written by MDAnalysis XYZWriter (release 2.4.3)
       H    -3.66345    4.37638   12.45404
       O    -3.08795    3.76184   11.98169
      H1    -3.33645    2.91373   12.36366
       H    -4.21453   -2.63242   11.74116
       O    -4.57948   -1.77185   11.96505
      H1    -3.79419   -1.30221   12.29924
       H    -1.36021    3.25029   14.03932
       O    -1.47869    3.30097   15.01043
      H1    -0.62248    3.05600   15.40864
       H    -3.96300    3.08313   17.50799
       O    -3.26993    3.80909   17.45883
      H1    -2.93636    3.74411   16.56314
       H    -1.77607   -0.22185   12.19592
       O    -2.22430   -0.53440   12.96560
      H1    -2.18228    0.10830   13.67708
       H    -7.21267    1.45382   14.89462
       O    -6.83925    2.23575   15.25223
      H1    -7.60158    2.96009   15.19129
       H     0.52557    1.26295   16.35568
       O     0.61559    2.22187   16.58869
      H1     0.17894    2.39185   17.42906
       H    -0.23992   -3.31534   14.07403
       O    -1.07548   -3.12111   13.52095
      H1    -1.14646   -2.17571   13.48815
       H     0.24601   -0.48135   14.43766
       O     0.06853   -0.41917   15.37798
      H1     0.65210   -0.97544   15.87209
       H    -5.42936   -2.26959   13.38627
       O    -6.12730   -2.69882   13.96794
      H1    -6.86420   -2.11065   13.88584
       H    -4.60291    0.21893   18.38798
       O    -4.35019   -0.67827   18.62647
      H1    -3.43459   -0.68147   18.45884
       H    -1.73968    5.07110   15.01520
       O    -2.23882    5.94802   14.97898
      H1    -2.02406    6.44659   15.76762
       H    -1.53414    3.44555   18.21271
       O    -0.85085    2.89524   18.64474
      H1    -0.46245    3.43321   19.31005
       H    -1.25081    0.07791   10.10076
       O    -1.00115    0.84750   10.63142
      H1    -0.14843    0.97870   10.26651
       H     0.77900   -1.05157   12.18030
       O     1.22788   -0.36060   12.68120
      H1     0.94411    0.53762   12.53143
       H    -6.04705   -2.36469   15.67369
       O    -5.96066   -2.60968   16.59950
      H1    -5.34989   -1.95085   16.98960
       H    -2.16266    1.66374   15.28855
       O    -2.43105    0.74387   15.30215
      H1    -1.73852    0.25717   15.71058
       H     2.48386    3.17311   13.46693
       O     1.71487    2.54675   13.39784
      H1     1.01828    3.04528   12.93049
       H    -5.63753    1.86856   18.59911
       O    -5.11574    1.85165   17.78430
      H1    -5.74776    1.67750   17.10873
       H    -4.14663    1.40333   14.08943
       O    -4.70436    1.98287   13.57248
      H1    -5.48767    2.21584   14.16177
       H     0.13109    3.53397   10.99982
       O    -0.31534    3.52867   11.85453
      H1    -1.27175    3.53176   11.70143

