63
frame 8 | Written by MDAnalysis XYZWriter (release 2.4.3)
       H     9.30990   -6.94129  -17.06738
       O     9.61790   -7.23673  -17.93941
      H1     9.49507   -6.48707  -18.54729
       H    14.58609   -6.10343  -19.46626
       O    14.88438   -6.79927  -18.84299
      H1    15.49612   -7.33953  -19.31474
       H    11.74360   -9.91224  -11.61782
       O    11.43109   -8.99096  -11.40220
      H1    12.04271   -8.34078  -11.71804
       H    15.19807  -13.38841  -16.01702
       O    14.88745  -14.11797  -15.54339
      H1    15.52523  -14.41351  -14.88883
       H    13.87949   -4.76523  -13.62614
       O    13.57082   -4.93815  -14.48360
      H1    13.10200   -5.78583  -14.41770
       H     9.51071  -14.57405  -18.76148
       O     9.46470  -14.00974  -17.98667
      H1     8.75061  -13.38573  -18.13134
       H    11.82059   -6.51631  -17.72601
       O    12.29348   -5.72576  -17.41527
      H1    13.22942   -6.02101  -17.41818
       H    10.06681  -10.01455  -14.38548
       O    10.24608   -9.49267  -15.20141
      H1     9.76141   -8.66250  -15.12115
       H    12.90946   -9.51692  -18.74550
       O    13.73752   -9.34450  -18.36626
      H1    13.90319   -8.42155  -18.58321
       H    14.03384  -12.70945  -19.45332
       O    14.53962  -12.23932  -18.76655
      H1    14.07100  -11.36350  -18.77616
       H    11.03456  -13.46966  -17.69070
       O    11.84977  -13.09759  -17.41898
      H1    12.57475  -13.64578  -17.69649
       H     6.76753   -8.72973  -16.70863
       O     7.18562   -8.77917  -17.60052
      H1     8.09842   -8.62396  -17.43063
       H    11.69125  -12.60206  -11.37702
       O    12.12599  -11.96863  -11.98226
      H1    12.17565  -12.44118  -12.83185
       H    14.71456   -8.63535  -15.31183
       O    13.87612   -9.11502  -15.40352
      H1    13.59034   -9.17541  -16.30466
       H    12.08784  -13.32633  -15.43615
       O    12.58303  -13.25339  -14.60281
      H1    13.48636  -13.43092  -14.80195
       H    12.49554   -7.10067  -13.19294
       O    12.05779   -7.20046  -14.09949
      H1    12.48339   -8.00037  -14.51313
       H    10.13883   -6.91018  -14.80625
       O     9.20608   -6.82917  -15.04566
      H1     8.77686   -6.74492  -14.15151
       H     7.51634  -10.58293  -18.04958
       O     7.64508  -11.44020  -18.53270
      H1     6.82957  -11.98835  -18.38306
       H    15.12647  -10.65092  -15.89226
       O    15.60684  -11.41407  -16.24572
      H1    15.28938  -11.40350  -17.19280
       H    11.05801   -9.96418  -16.90803
       O    11.37118  -10.40001  -17.70076
      H1    11.28228  -11.42100  -17.51114
       H    10.30285  -11.49484  -12.47155
       O     9.50578  -11.33052  -12.99953
      H1     9.06199  -12.20047  -13.10047

