63
frame 8 | Written by MDAnalysis XYZWriter (release 2.4.3)
       H     7.94239    4.48772  -13.83404
       O     7.74108    4.29927  -12.86280
      H1     8.02397    5.16604  -12.45380
       H     8.00265    8.74767  -13.31503
       O     9.00430    8.72456  -13.19811
      H1     9.11218    8.31660  -12.29232
       H    12.88735    9.88878  -13.75606
       O    13.32887   10.29037  -14.51508
      H1    13.87551   10.95258  -14.11358
       H     9.77325   11.98664  -10.63394
       O    10.24999   12.38500  -11.41086
      H1    10.13680   11.82443  -12.21223
       H     7.98089    8.89291  -17.04390
       O     8.83846    9.24632  -16.95774
      H1     9.24867    9.19798  -17.81373
       H    11.95978    6.31703  -15.62249
       O    12.20527    6.13007  -16.51038
      H1    12.16883    5.14097  -16.39260
       H    13.59777    7.47064  -13.29068
       O    12.80220    7.87686  -13.05867
      H1    12.16692    7.20059  -12.81925
       H     7.60627    4.77449  -16.63668
       O     7.45749    5.21964  -15.76130
      H1     8.27486    5.79379  -15.74823
       H     7.63074    7.07119  -10.22346
       O     7.56145    6.75465  -11.13844
      H1     6.65439    6.55419  -11.38329
       H    10.39033    8.27164   -9.69516
       O    10.42163    8.36510  -10.63475
      H1    11.03792    7.67544  -10.89353
       H    11.12169    6.00667  -19.33577
       O    10.53248    5.85420  -18.56837
      H1    11.13645    6.08397  -17.81727
       H     9.07203    3.43434  -17.34576
       O     8.51165    3.88249  -18.04524
      H1     9.10778    4.60117  -18.30138
       H     5.08870    5.09789  -14.30779
       O     4.45765    4.97211  -15.01837
      H1     4.90366    4.95862  -15.83419
       H    10.82133   11.02622  -14.58966
       O    10.26494   11.08177  -13.73380
      H1     9.93052   10.21174  -13.43901
       H    10.05426    6.29360  -11.89029
       O    10.95692    5.97328  -12.00837
      H1    11.13352    5.54333  -11.19873
       H     9.40886    7.89389  -16.04639
       O     9.61110    7.12662  -15.47173
      H1     9.47435    7.52232  -14.62133
       H     5.61547    8.11320  -17.36814
       O     5.92317    8.78360  -16.77049
      H1     5.77124    9.57249  -17.19249
       H     6.17310    7.65783  -13.95768
       O     6.24933    8.57180  -13.61498
      H1     5.92263    8.54219  -12.70216
       H    10.69155   10.86765  -16.81231
       O    11.46652   11.34680  -16.44818
      H1    12.16172   10.75277  -16.21146
       H     8.84799   11.59633  -14.75518
       O     8.06689   12.01402  -15.15153
      H1     7.28741   11.51494  -14.90003
       H     4.60992    8.42688  -15.59033
       O     3.63473    8.49549  -15.39220
      H1     3.56952    9.07966  -14.59511

