63
frame 9 | Written by MDAnalysis XYZWriter (release 2.4.3)
       H    -5.95182    9.83014  -17.89235
       O    -6.86186    9.98222  -18.23070
      H1    -7.00657   10.93383  -18.37710
       H   -16.85874   12.58017  -18.81280
       O   -17.09806   11.68267  -19.19024
      H1   -16.44061   11.09724  -18.78162
       H    -8.82204    7.91122  -16.46195
       O    -8.15565    8.53574  -16.13123
      H1    -7.88923    9.06810  -16.90485
       H    -9.38414    6.04210  -19.40887
       O   -10.10232    5.53914  -19.00790
      H1   -10.54237    6.14839  -18.38568
       H   -11.03964    6.99695  -16.21926
       O   -10.71144    7.47251  -16.98689
      H1   -11.33445    8.21492  -17.00927
       H   -12.05707   15.67691  -13.93092
       O   -12.61220   14.86748  -13.77350
      H1   -12.01660   14.15056  -14.01773
       H   -14.94515   10.44382  -19.53171
       O   -15.21601    9.96407  -18.73856
      H1   -14.80636    9.09567  -18.88312
       H   -10.59704    9.20376  -14.50104
       O   -10.26030    9.87861  -15.14024
      H1    -9.38059    9.59785  -15.48592
       H   -11.78088   16.94600  -17.28358
       O   -11.35155   16.15332  -16.95935
      H1   -12.12496   15.64129  -16.74370
       H   -12.89412   13.37926  -17.36832
       O   -13.38797   14.22062  -17.25320
      H1   -13.53404   14.51699  -18.23302
       H    -7.28040   14.77960  -16.02273
       O    -7.63529   13.90709  -16.01022
      H1    -7.03518   13.30471  -15.51057
       H   -10.24775   12.31035  -16.89633
       O   -10.88241   12.27195  -17.62967
      H1   -11.22653   11.31494  -17.71419
       H    -8.33646   12.60553  -18.95070
       O    -7.52375   12.58942  -18.43753
      H1    -7.67829   13.16902  -17.61715
       H   -10.63012   15.55732  -18.54008
       O   -10.16728   15.17221  -19.29069
      H1    -9.69947   15.90880  -19.68059
       H   -15.10798   11.25050  -15.00839
       O   -15.16031   10.49226  -14.46375
      H1   -15.39218   10.94339  -13.65462
       H   -14.95917   13.24261  -16.28181
       O   -15.53113   12.95779  -15.53479
      H1   -16.40853   13.18494  -15.92845
       H   -13.20866   10.16903  -17.05976
       O   -12.25559    9.91644  -17.19855
      H1   -11.84762    9.93947  -16.30470
       H   -13.31319    7.89678  -18.51068
       O   -14.12711    7.38011  -18.63160
      H1   -14.27627    6.90712  -17.83186
       H   -13.66606    8.39220  -13.23207
       O   -13.83724    7.91910  -14.08367
      H1   -14.29646    8.64877  -14.54855
       H    -9.89416   13.68539  -15.04901
       O   -10.74931   13.15145  -14.84974
      H1   -10.37054   12.37023  -14.41015
       H   -14.45586   15.45836  -16.26965
       O   -14.90679   16.25329  -15.97293
      H1   -15.77962   15.93279  -15.70962

