63
frame 9 | Written by MDAnalysis XYZWriter (release 2.4.3)
       H    -7.96866  -10.28413  -10.61058
       O    -7.56269  -10.52653  -11.43940
      H1    -6.65724  -10.19979  -11.45996
       H   -11.49040   -9.82338  -13.40959
       O   -11.86040  -10.29239  -14.19408
      H1   -11.09670  -10.64448  -14.72879
       H    -9.94748  -13.36554  -12.20635
       O   -10.36182  -13.58566  -11.38883
      H1   -10.53454  -14.52637  -11.45233
       H   -15.68361   -9.88673  -14.66756
       O   -15.31659   -9.34067  -13.96006
      H1   -15.12751   -9.89367  -13.18152
       H   -10.70039   -8.24714   -6.19217
       O   -11.16081   -7.62669   -5.60212
      H1   -11.55840   -7.04456   -6.23604
       H   -10.20487  -12.11601   -9.85729
       O    -9.52666  -11.89957   -9.19009
      H1    -9.24587  -12.75978   -8.91441
       H   -12.92460   -7.96325   -9.14641
       O   -13.60331   -7.32103   -8.91619
      H1   -13.40977   -6.61499   -9.56382
       H    -9.79887   -6.75950  -12.81699
       O    -9.49931   -6.60792  -11.87469
      H1   -10.30515   -6.40351  -11.34106
       H   -14.33140  -11.41074  -12.40837
       O   -14.90087  -11.21688  -11.71301
      H1   -15.42112  -12.06091  -11.57409
       H    -9.13782  -10.03956  -12.55341
       O    -9.92698   -9.46870  -12.35431
      H1    -9.48982   -8.60593  -12.18578
       H    -9.57998   -5.68467   -8.55084
       O    -9.95280   -6.04565   -7.75407
      H1    -9.91774   -7.04492   -7.87525
       H   -10.27091  -10.62073   -6.49900
       O    -9.92375  -11.06057   -5.74627
      H1   -10.73864  -11.17164   -5.17618
       H   -10.65948   -8.95152   -8.69081
       O   -10.20517   -9.03589   -7.79543
      H1    -9.26926   -9.11519   -7.97299
       H   -12.47589  -11.85822  -13.77095
       O   -12.94864  -12.63541  -13.37032
      H1   -12.87455  -13.36987  -14.00784
       H   -14.98853   -8.03345   -9.74999
       O   -15.88103   -8.06871  -10.15738
      H1   -16.16746   -8.97441  -10.39421
       H   -12.72835  -14.07455   -8.52908
       O   -12.73638  -14.96811   -8.31864
      H1   -11.85768  -15.14545   -8.03700
       H   -11.22628   -9.40064  -10.55559
       O   -11.85975   -9.47923   -9.84719
      H1   -12.00880  -10.40016   -9.69454
       H   -13.53688  -12.76786   -9.77191
       O   -13.14935  -12.25630   -9.02994
      H1   -13.83487  -11.73856   -8.66600
       H    -7.17941  -10.76967   -7.74504
       O    -6.78992  -11.50216   -8.28624
      H1    -7.48433  -11.55788   -8.93331
       H   -12.98046  -13.89670  -11.81905
       O   -13.49316  -14.52679  -11.18844
      H1   -12.86119  -14.93189  -10.56676
       H   -15.09757  -11.22293   -6.70863
       O   -14.66870  -10.63896   -7.32413
      H1   -14.57894   -9.78793   -6.87990

