63
frame 9 | Written by MDAnalysis XYZWriter (release 2.4.3)
       H     5.60761  -13.27381  -12.91811
       O     4.68175  -13.28998  -13.09693
      H1     4.49684  -12.32386  -13.24332
       H     8.59564  -17.64328   -9.08106
       O     8.06141  -16.95505   -9.55813
      H1     7.24366  -17.45722   -9.60542
       H     4.89248  -13.32468   -8.89292
       O     5.50511  -13.17195   -8.16627
      H1     5.02126  -12.76559   -7.47247
       H    11.56295  -13.44677  -10.43021
       O    10.74545  -13.09395  -10.71809
      H1    10.13678  -13.84648  -10.60516
       H     6.38180  -14.90876   -7.89149
       O     6.87527  -15.62733   -7.48719
      H1     7.36204  -16.01607   -8.21233
       H    12.33360  -18.88073   -8.87440
       O    12.25111  -18.08393   -9.41285
      H1    12.54234  -17.33257   -8.88078
       H     8.87688  -18.91628   -7.29297
       O     9.46063  -18.69782   -8.05326
      H1     9.81360  -19.55328   -8.29985
       H    10.60016  -17.47788   -7.27213
       O    11.11915  -16.95123   -6.65710
      H1    10.52626  -16.17627   -6.38908
       H     8.81868  -12.20464   -8.37916
       O     9.76794  -12.33469   -8.37367
      H1    10.04799  -12.50974   -9.26006
       H     5.65123  -19.51042  -11.92043
       O     4.79720  -19.02858  -11.88162
      H1     4.42819  -19.22471  -12.75171
       H     8.62986  -16.07229  -12.20979
       O     8.78878  -15.29300  -11.58179
      H1     8.33661  -15.59169  -10.75540
       H     4.88787  -18.14522   -9.57609
       O     5.11559  -18.04615   -8.65325
      H1     4.25117  -18.22109   -8.24813
       H     4.41683  -16.18122  -14.85243
       O     4.56146  -16.05745  -13.88435
      H1     4.55834  -15.08866  -13.70987
       H     5.33056  -16.39167  -11.94967
       O     5.48060  -16.22526  -11.03781
      H1     4.54486  -16.10179  -10.80569
       H    10.54802  -11.66403  -12.03119
       O    11.15545  -11.00225  -12.38068
      H1    11.94315  -11.55676  -12.55417
       H    10.62588  -18.73391  -10.94509
       O    10.06833  -19.40152  -11.38631
      H1    10.52535  -19.35110  -12.24492
       H    11.06989  -15.88950  -12.47608
       O    11.95757  -15.99098  -12.81583
      H1    12.19223  -15.09378  -13.14378
       H     7.36410  -13.34930  -14.14227
       O     7.73930  -13.22676  -13.27794
      H1     7.91499  -14.14130  -12.97890
       H     7.57988  -16.67065  -14.55496
       O     7.06203  -15.88521  -14.70229
      H1     6.17398  -16.09608  -14.31587
       H     8.35765  -14.82740   -7.12371
       O     9.30911  -14.75220   -6.76224
      H1     9.78861  -13.94047   -7.04419
       H     9.34923  -18.10051  -12.38814
       O     9.00017  -17.58875  -13.15661
      H1     9.78095  -17.40181  -13.69814

