63
frame 9 | Written by MDAnalysis XYZWriter (release 2.4.3)
       H     8.76157   -5.52144  -15.26222
       O     8.22064   -4.88296  -15.76156
      H1     7.68993   -4.48010  -15.06658
       H     8.13890   -6.52510  -17.51477
       O     8.86058   -7.04827  -17.88284
      H1     8.70315   -6.89360  -18.82741
       H     8.39237    1.44542  -16.00487
       O     7.72699    1.68588  -16.66389
      H1     8.19179    2.19965  -17.28632
       H     4.41357   -5.41703  -18.15322
       O     5.08493   -5.95146  -18.55440
      H1     4.74560   -6.87561  -18.71560
       H     9.06819   -1.25687  -19.94447
       O     9.35857   -1.69637  -19.12690
      H1    10.13784   -2.20166  -19.39507
       H    10.27355   -0.90169  -17.61017
       O    10.97427   -0.89548  -16.91917
      H1    10.78911   -1.61902  -16.33051
       H     5.59305   -6.22401  -16.88473
       O     5.46764   -6.69752  -16.01483
      H1     5.37034   -5.99971  -15.31167
       H    10.41353   -6.21868  -17.82198
       O    11.30356   -5.86028  -17.75242
      H1    11.88833   -6.22296  -18.44268
       H     4.46055    2.54612  -14.61041
       O     4.19632    1.70832  -14.18110
      H1     4.82079    1.05152  -14.52787
       H    10.31907    0.24170  -15.64101
       O     9.69814    0.84781  -15.13939
      H1     9.41618    0.25462  -14.46345
       H    14.09002   -0.65647  -17.80846
       O    13.39836   -0.89133  -18.48049
      H1    12.54206   -0.94122  -18.00059
       H     7.01222   -4.49788  -13.26904
       O     6.61015   -3.74878  -13.73434
      H1     5.71486   -4.08907  -13.95626
       H    10.96062    2.90729  -17.79072
       O    10.14109    3.07344  -18.19231
      H1    10.22380    4.01324  -18.43173
       H     6.83932   -0.25784  -14.38740
       O     6.24123   -0.10292  -15.13928
      H1     6.81280    0.56406  -15.60271
       H     5.41714    4.32474  -15.45242
       O     5.12592    3.67526  -16.10490
      H1     5.99619    3.40660  -16.41647
       H    10.44816   -2.60683  -14.27126
       O     9.90083   -2.51064  -15.11878
      H1     9.49546   -3.40491  -15.27898
       H     2.90540    1.60694  -15.41151
       O     2.39046    1.44538  -16.20833
      H1     2.96182    1.59907  -16.93810
       H     3.55711   -2.12270  -15.01767
       O     3.92430   -2.94147  -14.58361
      H1     3.60058   -2.90675  -13.65948
       H    11.44689   -3.89575  -18.35812
       O    11.68912   -3.21507  -18.99449
      H1    12.35302   -2.59112  -18.58654
       H     8.18537   -4.21790  -17.49464
       O     8.33633   -4.08756  -18.44722
      H1     8.75894   -3.18464  -18.45690
       H     6.65439   -1.23385  -17.02289
       O     6.59114   -1.38081  -17.95975
      H1     7.53907   -1.38040  -18.24286

