63
frame 9 | Written by MDAnalysis XYZWriter (release 2.4.3)
       H    16.00598    6.86443   10.64890
       O    15.10450    7.19343   10.89286
      H1    14.61356    6.43030   11.24011
       H    18.21401   10.74226   12.77435
       O    18.32635   10.74820   13.73407
      H1    19.15579   10.26433   13.90229
       H    10.74096    9.46301   11.30462
       O    11.06388   10.34781   11.57889
      H1    11.33314   10.79551   10.78918
       H    18.18743    7.33247   10.29069
       O    17.60805    6.79969    9.80808
      H1    18.05473    6.92854    8.95372
       H    12.45563   11.63460    8.97998
       O    11.53048   11.76077    9.00901
      H1    11.33632   12.71807    9.11872
       H    14.66710   10.77494   11.39362
       O    14.96407    9.98763   11.75401
      H1    14.69053    9.27624   11.15399
       H    13.80836    9.55079   12.96882
       O    12.88601    9.35766   13.24961
      H1    12.36405    9.82796   12.60024
       H    16.95346   12.14577    9.78248
       O    16.71067   12.87008    9.22225
      H1    17.02473   12.74965    8.29349
       H    19.49517   13.74620   14.17215
       O    18.65537   13.33518   14.09838
      H1    18.77972   12.38862   13.85531
       H    14.37613   11.93659   14.72681
       O    13.42213   11.89427   14.56046
      H1    13.14759   10.98388   14.54932
       H    15.14026   12.28494    8.77826
       O    14.26844   11.96496    8.54536
      H1    14.46317   11.10882    8.04701
       H    14.03561    9.27824    6.33762
       O    14.64031    9.82961    6.82029
      H1    15.54202    9.47582    6.78699
       H    15.84354   15.51892   12.16969
       O    14.87688   15.37643   12.06488
      H1    14.75353   14.45503   11.83936
       H    12.63656    5.60889   12.81346
       O    13.18360    5.26868   12.12112
      H1    13.46943    4.43848   12.49898
       H    18.31084   10.27281   10.77903
       O    17.60746   10.96071   11.00519
      H1    16.80852   10.42519   11.11115
       H    11.74885    7.09661   15.04620
       O    12.40381    6.76476   14.37154
      H1    12.75488    7.60389   14.06707
       H    17.04213    5.52111   14.86904
       O    16.56579    6.31820   15.14281
      H1    16.61456    6.88077   14.32194
       H    17.12371   11.41101   15.11501
       O    16.40087   11.65333   15.69729
      H1    16.63656   12.52651   16.01843
       H    12.59882   13.21853   11.61863
       O    13.46420   12.84086   11.88865
      H1    13.41564   12.59545   12.82987
       H    14.12641    7.43777    8.04404
       O    14.99654    7.08915    8.12373
      H1    15.19628    7.07912    9.06944
       H    16.34749    8.63411   12.71916
       O    17.14918    8.18851   13.11838
      H1    17.69108    8.94196   13.28020

