63
frame 8 | Written by MDAnalysis XYZWriter (release 2.4.3)
       H    -8.80774   13.60706   16.04849
       O    -8.64945   13.02117   16.84771
      H1    -9.39996   13.16388   17.36982
       H   -11.28619   13.36819   15.11498
       O   -11.70618   12.46182   15.21164
      H1   -10.94303   11.80629   15.40400
       H   -10.12375   19.00728   18.13911
       O   -10.55131   18.11460   18.09982
      H1    -9.96123   17.59524   17.52456
       H   -11.09353   15.60207   19.22128
       O   -11.80495   15.16375   18.80254
      H1   -12.60641   15.68429   18.89218
       H   -14.03447   13.00690   17.09703
       O   -14.12275   12.40555   16.34568
      H1   -13.26190   12.33851   15.95543
       H   -15.16010   13.71503   15.18558
       O   -15.74681   14.49893   15.08779
      H1   -15.83403   14.99801   15.90837
       H    -9.90160   16.31060   12.72829
       O    -9.85052   15.34868   12.54293
      H1   -10.72988   15.05543   12.75739
       H    -8.23093   16.72031   19.31389
       O    -7.63728   17.46166   19.12721
      H1    -7.01960   17.04439   18.50555
       H   -12.14783   17.84573   16.56354
       O   -12.90119   17.29544   16.48539
      H1   -13.18086   17.22992   17.42013
       H   -16.61559   16.44005   17.44912
       O   -15.76706   16.06933   17.27489
      H1   -15.30410   16.89393   16.94408
       H   -13.84295   14.78380   12.96116
       O   -14.65215   15.21089   12.76996
      H1   -15.20538   14.96876   13.56458
       H   -14.18675   16.98382   12.69446
       O   -14.21499   17.93145   12.47317
      H1   -13.68071   18.32898   13.17440
       H   -10.37473   15.81225   15.12422
       O   -11.16285   15.31258   15.28001
      H1   -11.83966   15.98047   15.55187
       H   -12.12663   12.96595   13.03342
       O   -12.13535   13.84840   12.58879
      H1   -11.85503   13.64721   11.63407
       H   -15.05411   15.78493   18.67064
       O   -14.45793   15.81858   19.48689
      H1   -14.65267   16.70067   19.76100
       H    -7.95795   17.52189   16.31802
       O    -8.87095   17.29150   15.94429
      H1    -8.91490   17.71947   15.05734
       H   -13.30891   12.01717   18.83834
       O   -13.62631   12.93102   19.01305
      H1   -12.84616   13.50828   19.02010
       H   -18.94361   15.35741   17.64041
       O   -18.63497   16.18279   17.96781
      H1   -19.35616   16.59340   18.51278
       H   -15.70052   18.88139   13.40897
       O   -16.38189   19.56229   13.52038
      H1   -16.32506   20.30332   12.88609
       H    -9.53145   18.56885   12.82117
       O   -10.11817   18.20910   13.53733
      H1   -10.83911   18.77713   13.63616
       H   -17.81022   15.54972   14.27283
       O   -18.31745   16.31503   14.11230
      H1   -17.80787   16.78501   13.52417

