63
frame 0 | Written by MDAnalysis XYZWriter (release 2.4.3)
       H    -2.37879   17.71560   -2.72889
       O    -2.84949   17.40049   -1.95057
      H1    -2.83673   18.17132   -1.35316
       H    -0.22968   14.88238   -2.20299
       O    -0.97317   15.23617   -1.67310
      H1    -1.30709   16.00662   -2.12911
       H     1.75525   10.14218   -1.23084
       O     2.00163    9.39613   -1.76212
      H1     2.54384    8.78137   -1.18330
       H    -1.86682   18.04023   -4.70421
       O    -1.17856   17.61366   -4.15143
      H1    -0.39826   18.15137   -4.15651
       H     0.36955   11.90124   -1.09551
       O     1.07063   11.62635   -0.55017
      H1     1.78325   12.17624   -0.85325
       H     3.39923   13.73826    1.14044
       O     2.74962   14.41775    0.87322
      H1     3.21843   15.23129    1.18181
       H     0.46400   15.55822   -7.34523
       O     0.68674   15.85360   -8.26588
      H1     1.11891   16.73584   -8.13472
       H    -2.40763    9.83560   -1.54079
       O    -1.99506   10.35738   -2.23145
      H1    -2.47142   10.18509   -3.04415
       H    -3.66324   15.42138   -4.58903
       O    -4.15441   16.20536   -4.79350
      H1    -4.66435   16.46343   -3.98075
       H    -0.91326   13.71364    1.21498
       O    -1.53698   13.66638    0.48305
      H1    -1.16852   14.34554   -0.14135
       H     2.66339   12.15827   -6.62303
       O     2.78454   12.19771   -5.65390
      H1     1.94363   12.02302   -5.25549
       H    -0.47728   16.97916    1.39118
       O     0.03094   17.16911    0.59939
      H1    -0.23662   16.65630   -0.18984
       H    -0.26440    9.96237   -5.57871
       O    -0.34971    9.35872   -6.35496
      H1    -1.26370    9.04708   -6.43502
       H     4.62240   16.92674   -2.73665
       O     5.11724   16.27422   -3.27360
      H1     4.92421   15.47820   -2.80222
       H     1.68218   14.03774   -3.16379
       O     0.70511   13.90000   -3.38353
      H1     0.49902   14.27996   -4.22214
       H     3.96875    9.74035   -4.73775
       O     4.09167   10.33467   -3.95560
      H1     3.72460   11.10620   -4.34055
       H     3.80390   15.31153   -4.69633
       O     3.14965   14.99333   -5.27691
      H1     3.19908   14.00996   -5.19676
       H    -0.84750   16.03922   -5.17521
       O    -0.28433   15.47576   -5.69032
      H1    -0.81210   14.75052   -5.93695
       H     0.42904   12.16392   -3.60358
       O     0.37581   11.33718   -4.06709
      H1     1.05979   10.74410   -3.68753
       H    -3.05223   13.41399   -4.06835
       O    -2.55911   14.20250   -4.18470
      H1    -1.98367   14.28870   -3.44200
       H     2.76886   14.21908   -1.14369
       O     2.86813   13.49503   -1.77371
      H1     3.81292   13.46622   -1.90124

