63
frame 10 | Written by MDAnalysis XYZWriter (release 2.4.3)
       H    -0.30950  -17.26420    3.00746
       O     0.56167  -17.68140    3.07888
      H1     1.17905  -17.01529    2.79564
       H    -4.33588  -18.10626   -3.22901
       O    -3.63331  -18.50779   -3.81250
      H1    -3.45367  -17.84319   -4.47155
       H     1.42906  -14.86083    1.95437
       O     2.12623  -15.49901    2.27540
      H1     2.68447  -15.67906    1.48897
       H     3.65086  -15.26313   -3.59819
       O     3.54331  -14.91883   -4.54430
      H1     2.68804  -15.21847   -4.81394
       H    -2.64512  -15.24564   -4.87721
       O    -2.58634  -14.32610   -4.50589
      H1    -3.48426  -13.96939   -4.66195
       H     1.08308  -15.10893   -3.18155
       O     1.00166  -14.90734   -2.21765
      H1     0.68344  -14.02129   -2.24839
       H     4.08904  -17.38813    0.41393
       O     4.42429  -16.48486    0.58952
      H1     4.43572  -16.08216   -0.27773
       H     6.38681  -15.97638   -3.22018
       O     6.47719  -16.64223   -2.52996
      H1     5.68081  -16.71347   -2.13370
       H    -0.06402  -19.53443   -3.04009
       O     0.36128  -19.00793   -2.32483
      H1    -0.37381  -18.48906   -1.94203
       H    -2.70422  -14.97647   -1.04623
       O    -3.24508  -14.89022   -1.83476
      H1    -2.69756  -14.93469   -2.65637
       H     2.92050  -19.63994    0.51917
       O     3.75550  -19.15372    0.34794
      H1     4.11164  -19.64348   -0.42551
       H    -0.91349  -14.81375    0.40284
       O    -1.45431  -15.54708    0.01544
      H1    -0.82324  -16.01766   -0.57730
       H    -3.42708  -16.42380   -6.27618
       O    -2.84841  -16.62850   -5.49437
      H1    -2.03813  -17.01016   -5.81923
       H    -1.80874  -16.01176    1.75113
       O    -1.85627  -16.10592    2.74817
      H1    -2.05714  -15.23412    3.09555
       H    -3.46420  -18.90785    0.38012
       O    -4.41018  -18.92878    0.48547
      H1    -4.60706  -18.40399    1.25017
       H     3.07343  -15.40474   -1.71496
       O     4.04999  -15.35936   -1.77706
      H1     4.22067  -14.49527   -1.42879
       H    -2.66872  -18.12787   -2.49508
       O    -2.25668  -17.76777   -1.65533
      H1    -2.79230  -16.94931   -1.53363
       H     1.89376  -18.01221   -3.14708
       O     2.72702  -17.63562   -3.41972
      H1     2.92314  -18.15380   -4.18406
       H    -0.00657  -18.56871   -5.50218
       O    -0.15230  -17.63368   -5.81746
      H1    -0.43675  -17.69454   -6.74438
       H     0.71526  -16.23277   -5.08893
       O     0.81646  -15.25040   -4.93582
      H1     0.00434  -14.83228   -5.26092
       H     2.88399  -17.75344   -6.70446
       O     3.64008  -18.20631   -6.31639
      H1     4.29411  -17.46015   -6.16048

