63
frame 9 | Written by MDAnalysis XYZWriter (release 2.4.3)
       H     8.18813   -8.84044  -12.62827
       O     7.48624   -9.51505  -12.83755
      H1     7.88286  -10.13260  -13.48506
       H     7.15550   -6.36864  -12.46024
       O     8.08116   -6.28091  -12.24511
      H1     8.08461   -6.04464  -11.34170
       H     8.76157   -5.52144  -15.26222
       O     8.22064   -4.88296  -15.76156
      H1     7.68993   -4.48010  -15.06658
       H     8.13890   -6.52510  -17.51477
       O     8.86058   -7.04827  -17.88284
      H1     8.70315   -6.89360  -18.82741
       H     4.41357   -5.41703  -18.15322
       O     5.08493   -5.95146  -18.55440
      H1     4.74560   -6.87561  -18.71560
       H     5.59305   -6.22401  -16.88473
       O     5.46764   -6.69752  -16.01483
      H1     5.37034   -5.99971  -15.31167
       H     9.79187   -9.96595  -15.55226
       O    10.32959   -9.51553  -16.25860
      H1     9.76169   -8.78605  -16.50294
       H     2.77063   -9.89415  -16.45331
       O     3.17823   -8.99517  -16.45923
      H1     3.84776   -9.15910  -15.80498
       H     7.01222   -4.49788  -13.26904
       O     6.61015   -3.74878  -13.73434
      H1     5.71486   -4.08907  -13.95626
       H     6.99546   -9.01000  -14.61320
       O     7.03027   -8.82775  -15.53386
      H1     6.46369   -8.03225  -15.58621
       H     4.21773   -9.02022  -18.04183
       O     4.64246   -8.68864  -18.86294
      H1     5.58832   -8.94708  -18.69825
       H     3.95428  -10.12359  -12.91372
       O     3.68414  -10.84316  -13.46791
      H1     2.73616  -10.73892  -13.33216
       H     7.07580   -9.68738  -17.19637
       O     7.36849   -9.71863  -18.13270
      H1     7.70944   -8.84472  -18.24360
       H     3.44678   -8.06280  -13.28796
       O     3.88302   -8.30627  -12.44042
      H1     3.21747   -7.98329  -11.89304
       H     4.75033   -5.47994  -12.09969
       O     5.30935   -6.05003  -12.57859
      H1     4.84388   -6.91988  -12.46111
       H     2.37994   -4.40307  -18.74764
       O     2.76090   -4.47102  -17.88292
      H1     2.06020   -4.94674  -17.44705
       H    10.62919   -6.84225  -14.19745
       O     9.70837   -6.68519  -14.33629
      H1     9.39871   -6.42370  -13.51868
       H     2.39157   -7.96937  -15.22258
       O     2.06774   -7.62104  -14.36135
      H1     2.27133   -6.66181  -14.29460
       H     2.61048   -4.05512  -14.89269
       O     1.82444   -4.62139  -14.84301
      H1     1.28979   -4.05835  -15.43594
       H     3.55711   -2.12270  -15.01767
       O     3.92430   -2.94147  -14.58361
      H1     3.60058   -2.90675  -13.65948
       H     8.18537   -4.21790  -17.49464
       O     8.33633   -4.08756  -18.44722
      H1     8.75894   -3.18464  -18.45690

