63
frame 10 | Written by MDAnalysis XYZWriter (release 2.4.3)
       H    -6.59691  -10.27666    0.40542
       O    -6.48807  -11.17431   -0.02230
      H1    -7.05024  -11.27697   -0.74416
       H    -9.24697  -18.28329    2.67952
       O    -8.48769  -18.93020    2.62308
      H1    -8.50121  -19.32759    3.46667
       H    -8.88700  -11.89010    6.06370
       O    -9.66433  -12.10367    5.56066
      H1   -10.35023  -12.36977    6.19867
       H   -10.84367  -12.22845    0.47231
       O   -11.13828  -12.07606    1.39802
      H1   -10.36577  -11.59505    1.73731
       H   -10.56531  -12.52988   -2.00735
       O   -10.27515  -12.08873   -1.13325
      H1   -10.70215  -11.25212   -1.05621
       H   -13.24301  -12.79287    1.78331
       O   -14.04195  -12.96806    1.29579
      H1   -13.98184  -13.88009    1.14627
       H   -11.43302  -17.14911    2.15643
       O   -10.50952  -17.10484    2.31768
      H1   -10.06933  -16.61343    1.56300
       H   -11.09162  -16.47421    4.08399
       O   -11.44954  -16.40893    4.94633
      H1   -10.72089  -16.05976    5.45021
       H    -6.95438  -17.69129    2.74733
       O    -6.13463  -17.21511    2.71518
      H1    -6.24989  -16.76217    1.81575
       H    -3.89476  -12.86024    1.61602
       O    -3.75663  -13.02285    2.54705
      H1    -4.52080  -13.54612    2.84992
       H   -10.30580  -10.85974    4.64280
       O   -10.64231  -10.02421    4.32707
      H1   -10.04399   -9.71718    3.64298
       H    -6.83657  -13.97123    2.69648
       O    -6.11427  -14.30280    3.16592
      H1    -6.10484  -15.24404    2.94736
       H    -5.82654  -13.81348   -3.19921
       O    -5.86231  -14.47029   -2.48881
      H1    -4.89970  -14.53076   -2.17301
       H    -8.70523  -12.41072   -2.08951
       O    -7.74817  -12.20699   -2.32193
      H1    -7.42025  -13.06785   -2.68326
       H    -4.36841  -11.63095   -0.08499
       O    -3.60268  -12.20959   -0.10806
      H1    -3.81488  -12.84049   -0.80818
       H    -5.83945  -16.17644   -0.26487
       O    -6.41953  -15.72865    0.37464
      H1    -6.91769  -15.07880   -0.08974
       H    -7.74625  -12.63146    0.95937
       O    -8.17488  -13.16122    1.65309
      H1    -8.82736  -13.63866    1.13592
       H    -8.84908  -16.87117   -0.27506
       O    -9.45586  -16.12085   -0.11680
      H1   -10.14650  -16.21629   -0.75108
       H   -12.01575  -15.76707   -1.63246
       O   -11.37855  -15.91112   -2.32483
      H1   -11.90156  -16.56378   -2.83730
       H   -11.15851  -13.18898   -3.98173
       O   -10.42639  -13.58299   -3.49398
      H1   -10.72619  -14.31273   -2.95433
       H   -14.02476  -14.53277   -0.59222
       O   -13.55320  -15.31453   -0.44470
      H1   -13.42879  -15.46527    0.48307

