63
frame 10 | Written by MDAnalysis XYZWriter (release 2.4.3)
       H    -2.22606   13.16597    2.61038
       O    -2.08233   14.10652    2.66836
      H1    -2.93268   14.52987    2.57714
       H    -1.16793    6.10876    5.36678
       O    -0.48029    6.51242    5.86750
      H1     0.27048    5.90458    5.73582
       H     0.14642    5.94872    1.18972
       O     1.10926    5.97385    1.34522
      H1     1.35680    6.90481    1.33262
       H     0.64981    9.05557    6.27567
       O     1.59780    8.96478    6.21510
      H1     1.90731    9.87142    6.38297
       H     3.37365   11.92869    6.27356
       O     2.70972   11.42960    6.78137
      H1     3.06827   11.43866    7.66937
       H     0.44033   13.77866    6.05687
       O     0.75208   13.52533    6.95699
      H1     1.33167   12.78635    6.85203
       H    -0.27315   14.27826    3.86339
       O     0.35858   14.58629    4.51431
      H1     0.01341   15.52630    4.72580
       H     0.45113   12.80759    0.93776
       O     0.96775   12.06513    0.55762
      H1     1.48644   12.48852   -0.15575
       H     3.66036    8.29838    3.15646
       O     2.98878    8.63665    2.57639
      H1     3.14760    9.59907    2.65964
       H    -1.36123    8.15061    2.76939
       O    -2.11894    8.28185    2.14722
      H1    -2.81469    8.72380    2.63263
       H    -1.82339   10.98510    4.16917
       O    -1.69220   11.35225    3.26773
      H1    -1.95256   10.69651    2.57746
       H     5.74053   10.82854    3.63711
       O     5.56816   10.82454    4.56927
      H1     5.18267    9.94175    4.61019
       H    -1.20316    9.70744    0.86473
       O    -1.34666   10.42001    0.25181
      H1    -0.47872   10.74406    0.04219
       H     2.19101   11.22931    2.83653
       O     2.94398   11.53676    2.32344
      H1     2.61057   11.72251    1.41656
       H    -2.40483   10.75491    6.87741
       O    -2.46379   10.63233    5.96240
      H1    -3.15614   11.28601    5.66883
       H     3.30182    7.38079    8.49937
       O     2.39865    7.13091    8.25603
      H1     2.13068    7.72951    7.55509
       H     0.79874    9.94231    4.18612
       O     0.71104   10.91509    4.16218
      H1    -0.21059   11.05860    3.87786
       H     1.14855    8.07570    3.63205
       O     0.20322    8.15225    3.68208
      H1    -0.03258    7.52767    4.39462
       H     4.50311    7.17480    4.73165
       O     5.11150    7.59301    4.09399
      H1     5.73372    6.82683    3.85775
       H    -3.12795    7.93892    7.64397
       O    -3.21010    8.16472    6.66639
      H1    -2.78387    9.02297    6.56145
       H     5.00720   13.81281    2.68907
       O     4.30439   13.72262    3.27803
      H1     3.91373   12.89510    2.96606

