63
frame 1 | Written by MDAnalysis XYZWriter (release 2.4.3)
       H    15.65364    5.20430   18.00720
       O    15.40110    4.81617   17.19349
      H1    14.86725    5.44517   16.76629
       H    17.17927    5.33062   11.48151
       O    16.43034    5.94057   11.73759
      H1    15.78859    5.21944   12.04148
       H    14.03985    3.71252   18.17696
       O    13.42221    2.98129   18.19108
      H1    13.56339    2.58451   17.33714
       H    18.63507   10.84875   11.84523
       O    18.94421   10.68208   12.81854
      H1    19.18166    9.72537   12.84966
       H    19.22848    7.86275   18.12674
       O    18.27327    7.61942   18.06648
      H1    17.82717    8.16011   17.41777
       H    14.97284    8.27439   18.95126
       O    14.65102    7.40853   19.07036
      H1    15.48217    6.95330   19.30724
       H    17.27085   10.57291   13.69088
       O    16.37036   10.66921   14.08584
      H1    15.71518   10.25200   13.50348
       H    18.65127    7.75610   14.17947
       O    19.37242    7.96096   13.53939
      H1    20.06289    7.36259   13.85636
       H    17.25994    4.87265   20.15343
       O    16.97773    5.30912   19.32914
      H1    17.57985    6.02479   18.96222
       H    18.18588   13.34691   15.98123
       O    18.04583   13.99966   16.66230
      H1    17.08013   14.16376   16.70880
       H    18.36520    0.28642   17.71941
       O    19.19419    0.06778   18.20057
      H1    19.73120    0.87310   18.30453
       H    17.28017   10.24576   17.05312
       O    16.62573    9.60602   16.69662
      H1    16.60556    9.79259   15.77216
       H    18.10199   12.33389   18.37397
       O    18.23883   11.36318   18.29473
      H1    18.18711   11.02793   19.20286
       H    18.65134    4.74661   16.40303
       O    19.31554    5.43368   16.70667
      H1    18.85814    6.16389   17.20188
       H    16.12659    8.36099   13.84352
       O    16.32752    7.43561   14.06564
      H1    16.50486    7.01270   13.20360
       H    17.40497    3.70559   14.79530
       O    17.68285    3.55640   15.69726
      H1    16.82374    3.70466   16.14973
       H    18.95170    4.30989   19.56884
       O    19.79893    4.54812   19.21996
      H1    19.64070    4.82003   18.31023
       H    14.84223    7.10018   15.17744
       O    14.06990    6.81944   15.62613
      H1    13.72386    7.42629   16.25155
       H    15.65975   10.03036   18.34724
       O    14.88119   10.40922   18.82821
      H1    15.17227   10.48346   19.72623
       H    12.12113    9.63312   17.14474
       O    12.75841    8.95044   17.17292
      H1    13.48475    9.48998   17.37769
       H    20.16814    1.67000   15.14180
       O    19.38231    1.27244   14.71885
      H1    18.78383    1.79053   15.24665

