63
frame 10 | Written by MDAnalysis XYZWriter (release 2.4.3)
       H   -18.67748    0.27856   -4.38861
       O   -18.37447    1.20081   -4.65242
      H1   -18.03846    1.03054   -5.53830
       H   -19.61954    4.83303   -6.38889
       O   -19.13548    4.30221   -5.74017
      H1   -19.02993    3.39961   -6.11880
       H   -15.25778    4.86431   -2.21518
       O   -14.61253    5.11295   -1.55737
      H1   -14.47400    6.03932   -1.70725
       H   -15.07202    7.91335   -2.63004
       O   -14.23478    7.49401   -2.73893
      H1   -13.65395    7.97712   -2.05082
       H   -17.10294    5.64564    3.33585
       O   -17.33557    5.30804    4.19728
      H1   -16.50737    4.98061    4.46424
       H   -16.25649    1.94875   -4.19731
       O   -15.39796    2.21214   -4.49013
      H1   -15.66019    2.40780   -5.39023
       H   -19.02254    9.01522   -5.90709
       O   -19.96162    8.94618   -5.71604
      H1   -20.13560    8.31408   -5.07676
       H   -17.06047    9.50697   -3.59594
       O   -16.77011    8.69743   -4.04964
      H1   -17.28639    8.56302   -4.88338
       H   -17.63275    7.46701   -7.34352
       O   -16.99735    7.71299   -6.66537
      H1   -16.43143    8.39279   -6.97141
       H   -14.98598    3.24555    1.06573
       O   -15.08815    4.19881    0.85862
      H1   -14.80652    4.31361   -0.06526
       H   -17.30866    5.63806   -3.29039
       O   -16.69224    4.96968   -3.42442
      H1   -16.55505    4.89631   -4.43594
       H   -19.34915    5.03969   -1.34995
       O   -19.19785    5.95737   -1.58452
      H1   -19.80467    6.14891   -2.33081
       H   -19.58101    2.88796    2.90401
       O   -18.80700    2.84678    2.35911
      H1   -18.18601    3.47613    2.71806
       H   -15.36975    0.38579   -2.51464
       O   -15.79049    0.43425   -1.62869
      H1   -16.34899    1.23317   -1.55395
       H   -14.44647    8.39935    2.21848
       O   -15.36291    8.52132    2.56544
      H1   -15.95905    7.94135    2.09045
       H   -16.29677    5.67980   -6.37124
       O   -16.35957    4.74612   -6.23801
      H1   -17.32669    4.61196   -6.28896
       H   -19.07207    2.73784   -1.05316
       O   -19.62417    3.30908   -0.42656
      H1   -19.34385    2.98676    0.45977
       H   -17.37592    3.15220   -2.37721
       O   -17.77320    2.24944   -2.25614
      H1   -17.94910    1.89943   -3.13540
       H   -18.48310    8.78523    0.31146
       O   -17.90445    8.21887   -0.23518
      H1   -18.43198    7.52108   -0.60557
       H   -17.35335    9.97912   -1.15687
       O   -16.72413   10.41893   -1.64583
      H1   -17.07100   11.24807   -1.90891
       H   -16.53405    5.76607    0.83187
       O   -16.98036    6.36026    1.42540
      H1   -17.40330    7.01546    0.86391

