63
frame 10 | Written by MDAnalysis XYZWriter (release 2.4.3)
       H   -17.06357   -1.06337   -9.35094
       O   -16.12726   -1.06431   -9.60227
      H1   -15.66030   -0.54179   -8.95020
       H   -18.99785   -2.71322  -12.65579
       O   -18.61501   -3.50161  -13.02783
      H1   -19.31605   -4.12256  -13.12511
       H   -17.29629   -1.23171  -14.90673
       O   -16.74672   -1.24583  -14.11081
      H1   -16.55605   -2.18591  -14.16540
       H   -15.61110   -2.40092  -10.69227
       O   -15.48700   -3.29746  -11.07497
      H1   -15.61173   -3.31121  -12.00794
       H   -18.09175    1.93165   -9.52496
       O   -17.17869    1.93496   -9.81937
      H1   -16.90939    1.04747   -9.75755
       H   -15.30973   -2.20371  -16.35991
       O   -14.69457   -1.48375  -16.14210
      H1   -15.25881   -0.94616  -15.56476
       H   -16.97575   -4.13640  -13.38054
       O   -16.04387   -4.10064  -13.61990
      H1   -15.60569   -4.94294  -13.30265
       H   -17.94939   -0.51829  -16.83599
       O   -18.29262   -1.30045  -16.31991
      H1   -17.76022   -1.98392  -16.78512
       H   -17.45716    1.60881  -17.31906
       O   -17.76883    0.81669  -17.79797
      H1   -17.59741    1.01607  -18.73425
       H   -13.13667   -1.42536  -15.11140
       O   -12.34936   -1.40950  -14.55569
      H1   -12.49544   -0.63010  -13.99955
       H   -19.12548   -1.56532   -9.58041
       O   -18.64792   -0.83817   -9.14947
      H1   -18.77267   -0.95266   -8.20593
       H   -15.43533   -0.81559  -18.92206
       O   -14.48939   -1.02000  -18.78340
      H1   -14.41181   -1.02094  -17.75915
       H   -13.07680   -4.68109  -16.11431
       O   -12.82221   -4.73933  -17.02601
      H1   -13.38623   -4.12090  -17.41983
       H   -16.97415    1.34729  -11.82968
       O   -16.93297    1.39540  -12.80504
      H1   -16.82643    0.50116  -13.10197
       H   -17.15682   -3.98693  -16.99751
       O   -16.58383   -3.48203  -16.37758
      H1   -16.48810   -4.09351  -15.57719
       H   -10.88742    1.03989  -11.92920
       O   -11.47914    0.31072  -12.21961
      H1   -12.25094    0.74649  -12.62414
       H   -19.38249   -3.57417  -17.83747
       O   -18.70839   -4.33588  -17.81860
      H1   -19.11323   -5.05071  -17.33647
       H   -17.81435    2.94213  -15.25961
       O   -17.28325    2.68421  -16.02859
      H1   -16.81556    3.38227  -16.42513
       H   -19.82178    1.30782  -11.66607
       O   -19.44454    0.60187  -12.29621
      H1   -18.55466    0.92435  -12.50323
       H   -14.69449    0.91947  -13.17472
       O   -13.79206    1.19783  -13.39032
      H1   -13.70582    2.20839  -13.37958
       H   -13.00254   -3.78827  -19.39188
       O   -13.90717   -3.67449  -19.27904
      H1   -14.08179   -2.73818  -19.21811

