63
frame 10 | Written by MDAnalysis XYZWriter (release 2.4.3)
       H   -17.08969   13.36452  -19.63412
       O   -16.93174   12.42998  -19.69844
      H1   -16.07114   12.22649  -19.27500
       H   -12.93888   17.71211  -18.22960
       O   -12.14012   17.90255  -18.70148
      H1   -11.83308   18.70605  -18.33619
       H   -15.67124    5.27429  -19.67153
       O   -14.72849    5.52404  -19.45869
      H1   -14.55015    6.44909  -19.76343
       H   -19.88467   16.44800  -17.70457
       O   -19.54980   15.61243  -18.12533
      H1   -19.11572   15.01842  -17.40585
       H   -16.44090   17.88829  -14.31770
       O   -16.40509   17.67192  -15.28198
      H1   -17.01148   18.37094  -15.67269
       H   -15.63451   18.11486  -19.50614
       O   -15.02333   17.45534  -19.13576
      H1   -14.81554   17.75853  -18.20848
       H   -13.76160   11.77934  -19.60125
       O   -14.27671   11.51104  -18.82087
      H1   -14.28602   10.55143  -18.91800
       H   -17.95887   11.42071  -18.69862
       O   -18.19840   10.93717  -17.87457
      H1   -17.43829   10.92345  -17.29065
       H   -12.90784   13.85585  -13.65760
       O   -13.62578   13.26369  -13.47863
      H1   -14.40714   13.70525  -13.81965
       H   -11.52989   16.51507  -17.49195
       O   -11.11379   15.84572  -16.90353
      H1   -11.56946   14.99423  -17.00518
       H   -13.55721   13.67931  -17.04088
       O   -14.39922   14.24053  -16.95383
      H1   -14.82756   14.19093  -17.78983
       H   -17.34923    7.92592  -15.50609
       O   -16.53785    8.25402  -15.87267
      H1   -16.51943    9.18866  -15.69483
       H   -11.65164   12.64759  -16.62210
       O   -12.19153   12.98232  -17.42256
      H1   -12.82749   12.23098  -17.58563
       H   -16.17941   12.07424  -15.45108
       O   -15.85524   11.14339  -15.40811
      H1   -15.24979   11.06812  -14.65023
       H   -17.24225    6.57559  -17.05467
       O   -17.97372    6.51457  -17.73559
      H1   -17.99994    7.19361  -18.37235
       H   -18.96286   13.61539  -15.91562
       O   -18.35991   13.56743  -16.68804
      H1   -18.56700   12.81525  -17.23885
       H   -15.84167   14.17004  -15.24581
       O   -16.34203   13.79551  -14.51490
      H1   -17.09675   13.51288  -14.97360
       H   -12.66158    8.95032  -16.78411
       O   -11.90295    9.48256  -16.95566
      H1   -11.47038    9.51574  -16.07043
       H   -15.35658    8.73819  -19.67787
       O   -14.87472    8.83149  -18.85714
      H1   -15.53658    8.63409  -18.18581
       H   -10.83967   12.45769  -18.56622
       O   -10.51968   12.09548  -19.40450
      H1   -10.59441   11.14536  -19.23948
       H   -13.74136   16.20283  -16.61154
       O   -14.09451   17.13560  -16.50246
      H1   -14.96662   17.14410  -16.09425

