63
frame 10 | Written by MDAnalysis XYZWriter (release 2.4.3)
       H    -1.36131    3.23905   13.59324
       O    -1.13900    3.12869   14.50968
      H1    -0.23808    2.76166   14.50359
       H     2.22806   -1.24648   19.15606
       O     3.02700   -1.61326   18.72572
      H1     3.08867   -2.55903   18.95662
       H    -3.02770    2.02971   17.90165
       O    -2.85095    2.95796   18.02360
      H1    -2.95890    3.46980   17.22071
       H     4.09933    5.51640   19.00447
       O     3.29133    5.73404   19.44247
      H1     3.15595    6.67166   19.40989
       H    -1.36719   -0.58261   12.72467
       O    -1.63471   -0.87954   13.61027
      H1    -2.07727   -0.15416   14.01119
       H     1.80231    5.39071   13.50414
       O     2.61804    4.97675   13.83912
      H1     2.25028    4.61122   14.66480
       H     1.03303    1.04848   15.99168
       O     1.11479    1.97649   15.73604
      H1     0.76601    2.52995   16.43313
       H    -4.92055    5.87689   19.03972
       O    -4.86601    5.04558   19.56132
      H1    -4.65098    4.45209   18.82143
       H     1.68262   -0.49681   15.36184
       O     1.24061   -0.59423   16.22608
      H1     1.96729   -0.65836   16.88311
       H     3.54291    3.04910   19.55201
       O     4.12663    2.88577   18.81276
      H1     4.69351    2.15677   19.11899
       H    -1.55343    8.11033   17.90912
       O    -1.69438    7.76764   16.99534
      H1    -0.85225    7.72183   16.58230
       H    -4.12752   -0.41554   17.60013
       O    -3.17950   -0.19214   17.36311
      H1    -2.81587   -1.03963   17.07681
       H    -1.74200    4.77733   15.63973
       O    -2.42947    5.23321   16.21353
      H1    -2.03548    5.99421   16.64615
       H     0.98209    6.56818   16.20901
       O     0.59155    7.13834   15.55185
      H1     1.18245    7.89387   15.34154
       H    -1.11628    2.66264   18.35866
       O    -0.16425    2.76545   18.28694
      H1     0.22674    1.90344   18.57548
       H     1.84631    5.36751   17.79185
       O     1.03191    5.19908   17.24433
      H1     0.42636    4.81824   17.89605
       H     2.99228    2.47385   15.91248
       O     3.86783    2.79795   16.15889
      H1     3.94258    2.83504   17.06940
       H    -2.44895    1.81783   14.94362
       O    -3.03094    0.98483   14.78377
      H1    -3.11138    0.57969   15.69778
       H    -3.01951    5.75841   14.59794
       O    -3.15716    6.16747   13.70573
      H1    -3.48890    7.08110   13.81555
       H    -5.66367   -0.02260   18.84501
       O    -5.84621   -0.51729   18.02378
      H1    -6.20735    0.13024   17.42761
       H    -4.50954    1.82378   14.61925
       O    -5.21701    2.37340   14.19063
      H1    -5.64703    2.75276   14.93699

