63
frame 10 | Written by MDAnalysis XYZWriter (release 2.4.3)
       H   -19.59940  -15.36612   -7.68507
       O   -19.32666  -16.29766   -7.70796
      H1   -19.60219  -16.79182   -8.46611
       H   -17.52248  -13.35375   -9.39517
       O   -17.63365  -14.11317   -9.97024
      H1   -16.81469  -14.64938   -9.96279
       H   -10.71139  -16.92208  -12.01720
       O   -10.72918  -16.69584  -11.04000
      H1    -9.86772  -17.09007  -10.76121
       H   -12.19842  -19.09868   -8.61809
       O   -12.28210  -19.23956   -7.68443
      H1   -13.18817  -19.05129   -7.41042
       H   -10.93599  -13.51801  -11.02976
       O   -10.63243  -13.95143  -10.19528
      H1   -10.61429  -14.85731  -10.43717
       H   -13.06764  -15.65330  -14.79534
       O   -12.45065  -14.92410  -14.76508
      H1   -12.44949  -14.40728  -15.53749
       H   -17.55957  -15.66253   -7.40657
       O   -16.75976  -15.50988   -6.95762
      H1   -16.96382  -15.80492   -6.03262
       H   -15.19281  -12.83252  -12.47728
       O   -15.75917  -12.59081  -13.29940
      H1   -15.55103  -13.23297  -14.03979
       H   -13.76836  -18.58907  -16.04428
       O   -14.40451  -18.77715  -15.29543
      H1   -13.86468  -19.34624  -14.71180
       H   -15.39206  -18.48575   -6.31130
       O   -14.67320  -18.29725   -6.88700
      H1   -14.47015  -17.33978   -6.70401
       H   -16.42447  -18.85646  -11.30714
       O   -16.97345  -19.64296  -11.28329
      H1   -17.85656  -19.30554  -11.46903
       H   -11.90969  -12.00653  -13.06449
       O   -12.06626  -12.79190  -12.54051
      H1   -11.90417  -13.51801  -13.14123
       H   -17.90272  -17.33451  -13.47122
       O   -17.43636  -16.45253  -13.22376
      H1   -18.25444  -15.96633  -13.04982
       H   -14.45857  -18.49223  -10.94602
       O   -15.00318  -17.78652  -11.22578
      H1   -14.78869  -17.47816  -12.13830
       H   -20.24000  -15.13778  -11.78603
       O   -19.25114  -15.12160  -11.85597
      H1   -18.92461  -14.86667  -10.98391
       H   -11.00320  -16.24904  -14.23311
       O   -10.60528  -17.01534  -13.84242
      H1    -9.77417  -17.19534  -14.33531
       H   -11.74777  -18.54763  -10.69974
       O   -12.43808  -19.12626  -10.26060
      H1   -12.05158  -20.01525  -10.44707
       H   -18.82484  -19.06756  -15.23011
       O   -19.09764  -18.67215  -14.40354
      H1   -19.30250  -19.39634  -13.83167
       H   -14.57609  -17.44282  -14.29747
       O   -14.65831  -16.70555  -13.66400
      H1   -15.59093  -16.53936  -13.63177
       H   -15.50049  -15.99212   -8.75558
       O   -15.32697  -15.64809   -9.61799
      H1   -15.33733  -16.40632  -10.25254
       H   -13.44965  -13.45448  -11.41859
       O   -14.29391  -13.23484  -11.04457
      H1   -14.58585  -14.03034  -10.57955

