63
frame 10 | Written by MDAnalysis XYZWriter (release 2.4.3)
       H    15.35693    7.67194   -6.80881
       O    15.15532    8.51163   -7.18281
      H1    14.55650    8.88301   -6.51327
       H    14.71238    8.56912   -9.04923
       O    14.29733    8.43795   -9.91583
      H1    13.76146    9.25644  -10.02654
       H    14.60335    2.93136   -5.62417
       O    14.00963    3.06934   -4.84869
      H1    13.69448    3.93739   -4.88897
       H    18.02003   10.08240   -8.34569
       O    18.63635    9.85514   -9.05633
      H1    18.20345    9.19634   -9.59029
       H    17.37548    5.97297   -6.13401
       O    17.00408    5.80556   -5.26712
      H1    17.54625    5.09014   -4.90407
       H    17.71177   10.27422   -6.49399
       O    17.44514   11.12335   -6.97117
      H1    16.60416   11.30818   -6.61659
       H    19.65608    0.75466   -9.01842
       O    19.59373    1.68271   -8.77676
      H1    18.88909    2.02828   -9.31018
       H    18.02906    5.27694  -11.95669
       O    18.97768    5.19841  -11.80584
      H1    19.22198    5.11936  -12.73810
       H    16.54461    7.76296  -12.56901
       O    15.83319    7.23289  -12.92813
      H1    15.57403    7.63817  -13.73770
       H    17.76098    2.70137   -3.94874
       O    18.16863    3.59425   -3.84378
      H1    18.84897    3.56168   -4.56157
       H    18.62057    3.60334  -11.14850
       O    18.18521    2.74552  -11.04706
      H1    17.33640    2.81141  -11.52405
       H    16.42442    8.21658  -10.46918
       O    17.31474    8.48319  -10.88797
      H1    17.15950    9.28742  -11.44622
       H    17.52211    5.82956   -8.13695
       O    18.30095    5.82928   -7.61472
      H1    18.78563    6.53581   -7.95496
       H    18.21066    7.97576   -3.24413
       O    18.44993    7.02208   -3.44630
      H1    17.78609    6.71807   -4.10240
       H    15.36769    2.44164   -7.91764
       O    15.83035    2.91823   -7.17491
      H1    16.73289    2.53537   -7.08420
       H    15.22544    4.79729   -8.08437
       O    15.23838    5.53327   -8.68660
      H1    14.42611    5.44014   -9.18502
       H    15.53553    1.07282  -11.25160
       O    15.19543    1.96919  -11.34515
      H1    14.50795    1.90600  -10.67041
       H    15.39569    6.65672   -4.36506
       O    14.66982    7.27502   -4.42360
      H1    14.92801    8.07438   -3.90686
       H    13.51956    1.22712   -8.44477
       O    13.66302    2.09372   -8.87514
      H1    12.85818    2.42518   -9.27550
       H    13.30653    7.01662   -9.95468
       O    12.85817    6.19287   -9.89632
      H1    12.97884    5.70431  -10.72064
       H    15.73658    5.45234  -12.88316
       O    15.96526    4.49007  -12.91561
      H1    16.57435    4.41170  -13.61763

