63
frame 10 | Written by MDAnalysis XYZWriter (release 2.4.3)
       H     8.17741   -0.65714   -0.08458
       O     8.52911   -1.16947   -0.83509
      H1     9.47785   -1.35896   -0.57230
       H    10.25405   -2.69711   -2.31230
       O    11.10451   -2.43706   -2.76598
      H1    11.79274   -2.42806   -2.03024
       H    13.52901   -3.54999   -1.42341
       O    13.32689   -2.60407   -1.30983
      H1    12.82260   -2.51400   -0.50806
       H    12.03527    0.21950   -6.03315
       O    12.19443   -0.41818   -6.80552
      H1    11.55905   -0.15208   -7.50136
       H    14.60335    2.93136   -5.62417
       O    14.00963    3.06934   -4.84869
      H1    13.69448    3.93739   -4.88897
       H    10.70037    3.95561   -1.91943
       O    11.66070    4.12945   -2.10291
      H1    12.05951    3.64599   -1.36298
       H    16.80808    2.00010   -0.83583
       O    17.06980    2.89504   -0.68363
      H1    18.00572    2.90531   -0.70135
       H    15.69558   -1.46994   -3.80767
       O    15.94405   -0.79305   -3.11032
      H1    15.13495   -0.64684   -2.63588
       H    14.38812    0.04407   -0.40185
       O    14.16678    0.54154   -1.19547
      H1    14.19987    1.47677   -1.01072
       H    11.51255   -1.47630    0.90180
       O    11.06720   -1.95568    0.15329
      H1    10.91415   -2.86393    0.41624
       H    11.35284    0.92192   -0.90026
       O    10.90268    1.26849   -0.10309
      H1    10.36581    2.01568   -0.46800
       H    12.81136   -0.05435   -2.00454
       O    11.89819    0.05035   -2.38054
      H1    11.61377   -0.85275   -2.54605
       H    12.49298   -3.00322    2.57238
       O    12.85026   -2.12397    2.30655
      H1    12.52214   -1.52813    3.02122
       H    15.79612    3.58813   -2.29008
       O    14.82726    3.53135   -2.38724
      H1    14.62787    3.25456   -3.30186
       H    12.53742    1.96308   -4.80022
       O    11.68712    1.47887   -4.84164
      H1    11.63456    0.90377   -4.06955
       H    18.22657   -2.15041   -1.85072
       O    17.47296   -2.70061   -1.97962
      H1    16.99581   -2.10633   -2.55601
       H    15.47313   -1.54707    1.27959
       O    15.08005   -0.61709    1.23842
      H1    14.25617   -0.73344    1.70857
       H    18.53444    0.95219   -4.24734
       O    17.64431    1.02588   -4.50084
      H1    17.16564    0.39304   -3.92486
       H     9.05638    0.98254   -3.05299
       O     8.28454    0.48161   -3.00575
      H1     8.34505   -0.12362   -2.22958
       H    11.29759   -3.79873   -3.78055
       O    11.55589   -4.58534   -4.32922
      H1    10.80632   -5.23848   -4.26400
       H    10.02599    0.72452    1.18326
       O     9.39322    0.32355    1.77690
      H1     9.70369   -0.60770    1.95164

