66
frame 1 | Written by MDAnalysis XYZWriter (release 2.4.3)
       H    -6.92956    5.66922  -17.85782
       O    -6.22968    5.56755  -17.21147
      H1    -5.35238    5.30413  -17.65901
       H    -0.46120    6.01621  -14.11959
       O    -0.72048    5.10358  -14.19846
      H1    -0.84694    4.99754  -13.27639
       H     4.87729    5.20259  -19.39936
       O     4.13851    4.85138  -18.92336
      H1     4.06322    5.39278  -18.14736
       H    -5.83229    7.28556  -17.21175
       O    -5.77125    8.23996  -17.40152
      H1    -5.50319    8.65791  -16.56879
       H    -0.94583    7.65428  -17.92272
       O    -0.79095    8.00615  -17.03855
      H1    -0.95899    8.97256  -17.05724
       H     1.86199    9.43803  -18.50739
       O     1.55757   10.13837  -19.11971
      H1     2.02778    9.89656  -19.94427
       H    -0.31706   10.59635  -15.60161
       O    -0.82096   10.43892  -14.83108
      H1    -1.69970   10.43519  -15.21121
       H    -0.17440    3.90944  -18.24322
       O     0.16259    4.19521  -19.17349
      H1     1.05463    4.51348  -19.06594
       H    -5.39044    8.86316  -14.53611
       O    -6.11724    9.48835  -14.60740
      H1    -6.89318    8.91002  -14.48176
       H     5.48453    7.03175  -16.76909
       O     4.60924    6.62741  -16.86718
      H1     4.04718    7.38465  -16.66946
       H    -3.83874    5.33001  -18.91675
       O    -3.73820    4.78396  -18.12073
      H1    -3.95570    3.82251  -18.27484
       H     0.75494    7.13811  -11.98669
       O     0.87129    7.23666  -12.90426
      H1     1.76155    6.83920  -13.10813
       H    -1.57332   13.03252  -18.18889
       O    -1.53222   12.89865  -17.22630
      H1    -1.81021   13.74824  -16.78399
       H     1.37575    8.52870  -16.69174
       O     2.29448    8.71801  -16.92909
      H1     2.70504    9.22016  -16.17861
       H     4.13803    9.92123  -14.63303
       O     3.23043   10.13169  -14.96127
      H1     2.62922   10.01267  -14.21421
       H    -0.55187    2.53634  -16.41446
       O    -0.30635    3.47293  -16.67321
      H1    -0.34019    4.07386  -15.92810
       H    -3.22177    4.56034  -16.18810
       O    -3.45991    4.52012  -15.23363
      H1    -2.60162    4.41744  -14.80472
       H    -2.11494    6.72122  -19.42294
       O    -1.15341    6.63046  -19.42267
      H1    -0.91457    5.70675  -19.40429
       H    -3.18469    8.16735  -13.64556
       O    -3.94305    7.75571  -14.09597
      H1    -3.60389    6.95458  -14.46127
       H    -0.77802    8.59105  -12.81412
       O    -1.74143    8.71489  -12.57090
      H1    -1.81733    9.67807  -12.32392
       H     0.02271   12.23126  -16.95381
       O     0.80285   11.65270  -16.94288
      H1     0.85103   11.26466  -17.87055
       H    -3.42109    9.99419  -17.33529
       O    -3.10432   10.51146  -16.62585
      H1    -2.62166   11.23089  -17.07221

