66
frame 1 | Written by MDAnalysis XYZWriter (release 2.4.3)
       H    -2.81093    3.28110   -3.57577
       O    -3.37920    2.71505   -3.00613
      H1    -3.62073    3.18489   -2.18911
       H    -1.04333    5.42671    0.43744
       O    -1.45442    4.55855    0.20139
      H1    -1.24241    4.15627    1.04858
       H    -4.72494    2.48155   -3.81935
       O    -5.42404    2.32932   -4.50620
      H1    -6.26889    2.74553   -4.16812
       H    -5.79188    5.14144    2.00488
       O    -6.02125    5.08821    1.07729
      H1    -6.96041    4.95981    1.02948
       H    -4.58230    5.40169   -3.59822
       O    -4.92114    5.96023   -2.83914
      H1    -4.47993    5.52879   -2.10436
       H    -3.40407    0.86381    4.11705
       O    -3.14235    1.74657    3.82714
      H1    -3.54964    1.87325    2.99072
       H    -4.58688    2.94154    0.51363
       O    -4.60741    2.30220    1.23470
      H1    -4.88831    1.57136    0.72452
       H    -1.32057    0.16120   -0.25372
       O    -0.52618    0.46465    0.17417
      H1     0.08059    0.81030   -0.52572
       H    -7.67959    2.89232    2.53092
       O    -7.35065    2.21806    1.94050
      H1    -6.40485    2.33007    1.90329
       H    -4.79223    0.20034   -0.89312
       O    -5.25825   -0.00134   -0.08569
      H1    -6.07978   -0.43252   -0.46218
       H    -6.77443    0.93126   -1.76740
       O    -7.26314    1.77611   -1.67867
      H1    -7.43810    1.83736   -0.75953
       H    -8.32826    0.18872    5.17911
       O    -8.51351    0.21739    4.23454
      H1    -8.00876    1.05981    4.03575
       H    -5.66855    0.64096   -3.83530
       O    -5.64939   -0.22313   -3.40554
      H1    -6.37411   -0.72596   -3.82621
       H    -7.60265   -2.21882   -0.79693
       O    -7.62471   -1.53471   -0.11763
      H1    -7.84181   -1.90905    0.75327
       H    -4.57876   -1.43181    5.22148
       O    -3.83839   -1.02977    4.70379
      H1    -3.05137   -1.23520    5.26872
       H    -2.36908   -1.35432    2.00911
       O    -1.39462   -1.28617    1.91751
      H1    -1.15398   -0.56976    1.38386
       H    -1.09746    2.00444    1.44980
       O    -1.24648    2.59522    2.17048
      H1    -1.78391    2.09766    2.78138
       H    -4.79579    4.69210   -0.02225
       O    -4.06603    4.34179   -0.57286
      H1    -3.24339    4.62924   -0.09724
       H    -4.46839    4.28444    5.13977
       O    -3.55532    4.05045    5.16494
      H1    -3.41667    3.20526    4.68733
       H    -4.46715   -1.57107    2.68141
       O    -4.18363   -1.74768    1.68234
      H1    -4.73263   -1.18560    1.09949
       H    -2.41883   -0.27129   -2.16806
       O    -2.76691    0.33208   -1.54156
      H1    -2.71951    1.27503   -1.88322
       H    -9.38392    0.07860    0.49760
       O    -9.51369    1.03969    0.45956
      H1    -8.74237    1.35206    1.01488

