66
frame 1 | Written by MDAnalysis XYZWriter (release 2.4.3)
       H    18.91610  -11.26497   13.18935
       O    19.38372  -12.00801   12.73873
      H1    19.29029  -12.69862   13.43297
       H    17.64966  -11.14441   15.14890
       O    17.86804  -11.80876   15.80493
      H1    17.01335  -12.18593   16.12556
       H    16.37897   -2.96396   17.16204
       O    16.02428   -2.15718   16.71880
      H1    15.23176   -2.50122   16.28915
       H    14.26887   -7.21272   12.12042
       O    13.78956   -7.32143   11.26952
      H1    14.25070   -6.87909   10.55726
       H    14.88081  -12.80695   17.07532
       O    15.18219  -12.19920   16.39163
      H1    15.21708  -11.36109   16.77874
       H    13.20745   -8.70464   19.13302
       O    13.95353   -8.42141   19.65605
      H1    14.14519   -7.50827   19.52895
       H    19.47651   -1.64654   18.33216
       O    19.44069   -2.60896   18.48524
      H1    19.80680   -3.00758   17.67459
       H    14.97781   -8.88571   16.38547
       O    14.66696   -8.69997   15.51361
      H1    13.85994   -9.28646   15.45052
       H    16.18098   -4.64189    9.55534
       O    16.97292   -4.12859    9.87589
      H1    17.50567   -4.70346   10.43227
       H    16.38174  -10.23155   18.27463
       O    15.60552   -9.83992   17.88775
      H1    15.20426   -9.24421   18.56243
       H    15.43935   -7.75468   14.17442
       O    15.44420   -7.29074   13.32886
      H1    15.50319   -6.38324   13.59641
       H    13.04160   -4.96844   17.44298
       O    13.90261   -4.58778   17.40254
      H1    13.82909   -3.84776   16.77442
       H    14.67106  -11.25368   12.24316
       O    14.30177  -12.12053   12.17037
      H1    14.58528  -12.37095   11.30392
       H    17.11186   -4.51901   17.84395
       O    16.46130   -4.41926   18.51855
      H1    15.67428   -4.84113   18.17380
       H    17.90676   -8.97198   14.25366
       O    17.76470   -9.86261   13.81274
      H1    17.01230   -9.74610   13.27349
       H    17.65761   -5.40307   15.76654
       O    17.46341   -4.47418   15.93385
      H1    18.33009   -4.03534   15.93914
       H    18.18295   -7.78001   10.63863
       O    17.90855   -6.93235   11.01710
      H1    17.29479   -7.22619   11.68877
       H    19.10254   -6.92933   15.32018
       O    18.33879   -7.55813   15.49550
      H1    18.48527   -7.91233   16.38178
       H    16.65471   -4.53668   14.44323
       O    16.36432   -4.81492   13.56066
      H1    16.45003   -3.96100   13.12206
       H    15.92965  -10.03723   10.62834
       O    15.98119   -9.75888   11.50980
      H1    15.61633   -8.86392   11.52625
       H    18.99269   -8.65568    9.06774
       O    19.04518   -9.03584    9.92305
      H1    18.55018   -9.81913    9.84815
       H    19.07103   -7.26125   18.26591
       O    19.06849   -6.32919   18.47532
      H1    18.34108   -6.37170   19.16208

