66
frame 1 | Written by MDAnalysis XYZWriter (release 2.4.3)
       H    17.02524   -1.55193   12.02011
       O    16.61501   -1.94140   12.84554
      H1    15.88868   -1.35138   13.12926
       H    16.37897   -2.96396   17.16204
       O    16.02428   -2.15718   16.71880
      H1    15.23176   -2.50122   16.28915
       H    15.91557    0.78907   17.37225
       O    16.48517    0.76931   16.58150
      H1    16.56824   -0.13838   16.25624
       H    14.26887   -7.21272   12.12042
       O    13.78956   -7.32143   11.26952
      H1    14.25070   -6.87909   10.55726
       H    14.97562    0.81703   12.22792
       O    14.70404   -0.04718   12.50140
      H1    14.89222   -0.61025   11.69847
       H    19.15149   -4.43364    7.70985
       O    18.72910   -3.57712    7.85825
      H1    18.11485   -3.65418    8.59376
       H    14.86745   -1.26616    9.59808
       O    14.87744   -1.82974   10.39655
      H1    15.56875   -2.50901   10.16746
       H    11.45598   -4.72610   13.74561
       O    11.66147   -3.82308   13.99614
      H1    11.84310   -3.46789   13.11951
       H    12.85574   -3.01526   15.01488
       O    13.56960   -2.50857   15.36855
      H1    13.11752   -1.86404   15.96342
       H    16.18098   -4.64189    9.55534
       O    16.97292   -4.12859    9.87589
      H1    17.50567   -4.70346   10.43227
       H    17.77831   -0.15243    9.89657
       O    17.77982   -0.50332   10.78060
      H1    18.59811   -0.14696   11.21046
       H    13.92471   -5.52381    9.01118
       O    14.72750   -6.04704    9.16105
      H1    14.94267   -6.44171    8.29311
       H    15.43935   -7.75468   14.17442
       O    15.44420   -7.29074   13.32886
      H1    15.50319   -6.38324   13.59641
       H    13.04160   -4.96844   17.44298
       O    13.90261   -4.58778   17.40254
      H1    13.82909   -3.84776   16.77442
       H    17.11186   -4.51901   17.84395
       O    16.46130   -4.41926   18.51855
      H1    15.67428   -4.84113   18.17380
       H    17.65761   -5.40307   15.76654
       O    17.46341   -4.47418   15.93385
      H1    18.33009   -4.03534   15.93914
       H    18.18295   -7.78001   10.63863
       O    17.90855   -6.93235   11.01710
      H1    17.29479   -7.22619   11.68877
       H    19.10254   -6.92933   15.32018
       O    18.33879   -7.55813   15.49550
      H1    18.48527   -7.91233   16.38178
       H    19.15901   -0.63227   14.50643
       O    19.00157   -1.48163   14.07062
      H1    18.03359   -1.48689   13.74186
       H    16.65471   -4.53668   14.44323
       O    16.36432   -4.81492   13.56066
      H1    16.45003   -3.96100   13.12206
       H    11.32970   -2.79170   10.72435
       O    11.87129   -1.98897   10.62713
      H1    12.83454   -2.16447   10.65034
       H    15.92965  -10.03723   10.62834
       O    15.98119   -9.75888   11.50980
      H1    15.61633   -8.86392   11.52625

