66
frame 1 | Written by MDAnalysis XYZWriter (release 2.4.3)
       H   -11.23438   12.30790  -10.63974
       O   -12.06322   12.08306  -10.11660
      H1   -12.65057   12.67916  -10.58174
       H   -10.33567   15.81366   -9.68087
       O   -10.98847   15.44371  -10.31161
      H1   -10.97871   16.00755  -11.06756
       H   -14.26043   12.08867   -5.77690
       O   -14.25850   12.68811   -6.52774
      H1   -13.34000   12.77931   -6.80400
       H   -10.91125   15.77435  -13.78703
       O   -11.46686   15.42809  -14.50085
      H1   -10.84086   15.00265  -15.05876
       H    -7.03005   13.66460  -10.37634
       O    -7.91907   13.39077  -10.15069
      H1    -8.53383   13.40572  -10.92030
       H   -10.80179   17.50142  -13.22702
       O   -10.43358   17.06164  -12.47501
      H1    -9.50489   17.28374  -12.47609
       H   -10.89673   16.51309   -6.46030
       O   -11.59002   15.92608   -6.80585
      H1   -12.27440   16.47707   -7.16365
       H    -9.33603   17.70789   -5.68985
       O    -9.54064   16.89457   -5.28647
      H1    -8.79619   16.29205   -5.42003
       H    -7.00235   19.39511   -9.09607
       O    -7.71421   19.59631   -9.64759
      H1    -8.47134   19.06678   -9.45590
       H    -6.92984   16.72396  -13.04905
       O    -7.86022   16.55266  -13.23087
      H1    -8.03535   16.75231  -14.20382
       H   -12.40317   16.07016  -10.23368
       O   -13.19374   16.65842  -10.11748
      H1   -13.88973   16.40072  -10.74637
       H    -8.53615   15.43823   -7.93483
       O    -8.47517   15.94501   -8.77186
      H1    -8.18075   15.24717   -9.38539
       H   -11.89397   15.36003   -4.85280
       O   -12.04260   15.41628   -3.88793
      H1   -12.82106   14.87766   -3.85556
       H    -7.31877   14.43599   -5.60032
       O    -7.54781   15.25591   -6.05213
      H1    -6.81756   15.85658   -5.85533
       H   -10.35787   10.63343   -7.45045
       O    -9.70585   11.38722   -7.49858
      H1   -10.31786   12.13159   -7.59876
       H    -7.41843   13.21374  -13.58018
       O    -8.07330   13.89327  -13.83184
      H1    -7.82973   14.75801  -13.43573
       H   -11.69249   12.90803   -8.62698
       O   -11.68960   13.19478   -7.70358
      H1   -11.49765   14.12292   -7.61548
       H   -13.93622   18.28052   -7.51892
       O   -13.98303   17.32227   -7.37942
      H1   -13.81417   17.14356   -8.32085
       H    -6.89578   13.41337   -7.79806
       O    -6.04082   13.05474   -7.63115
      H1    -6.17564   12.09823   -7.93235
       H   -11.36363   18.54792  -11.65402
       O   -12.12563   19.00419  -11.20989
      H1   -12.79602   18.33904  -10.93321
       H    -9.44027   13.29861  -12.65511
       O    -9.93440   13.26974  -11.83415
      H1   -10.24892   14.13288  -11.61342
       H    -7.79212   11.78928  -10.65412
       O    -7.46226   10.98547  -11.12517
      H1    -7.80802   10.24131  -10.60096

