66
frame 2 | Written by MDAnalysis XYZWriter (release 2.4.3)
       H     2.13324   19.18852   -7.80192
       O     2.35840   18.70326   -8.56199
      H1     2.98066   18.03732   -8.26917
       H     4.77616   17.10435  -13.92581
       O     4.15202   17.37103  -14.60441
      H1     3.28251   17.58286  -14.14039
       H    -2.99242   17.54258  -13.71739
       O    -2.81220   18.44903  -13.92009
      H1    -2.36954   18.42282  -14.80366
       H     7.30478   16.13208  -13.21039
       O     6.42267   16.53312  -13.29686
      H1     6.44933   17.04436  -12.45819
       H     3.27490   15.96388  -15.94971
       O     2.81281   15.45647  -16.59894
      H1     2.23970   16.15387  -16.93442
       H     2.16368   14.34023  -10.72571
       O     2.51421   14.76928   -9.93805
      H1     1.77068   15.02089   -9.40555
       H     3.34828   12.51558  -11.35132
       O     3.71293   11.97182  -10.60962
      H1     2.90596   11.96836  -10.07329
       H     0.48627   15.24777  -13.01816
       O    -0.33957   15.61906  -13.23071
      H1    -0.23018   15.69941  -14.18221
       H     5.89218   15.98301   -8.72056
       O     6.66936   15.97397   -9.28574
      H1     7.29787   15.36378   -8.94135
       H     0.13256   16.46822   -8.08919
       O     0.55751   16.65563   -8.91904
      H1     1.10100   17.45817   -8.81744
       H     2.48932   18.51780  -12.43481
       O     3.13392   18.76703  -11.72504
      H1     2.56737   18.72938  -10.91810
       H     0.94308   17.28263  -13.38780
       O     1.63271   17.80395  -13.73109
      H1     1.27171   18.33513  -14.46933
       H     4.54048   17.76632   -7.10955
       O     4.39705   17.16694   -7.86561
      H1     4.19260   16.35493   -7.46666
       H     5.82187   17.46413  -10.59200
       O     6.02717   18.26870  -11.14785
      H1     5.15230   18.42813  -11.63600
       H     8.26169   18.63000   -7.93654
       O     8.75793   18.19554   -7.18606
      H1     8.95818   17.28435   -7.46808
       H     7.94747   12.95483  -10.20499
       O     7.03604   12.84440   -9.92175
      H1     6.61566   13.47793  -10.50597
       H     1.73938   18.45284  -17.47343
       O     2.60600   18.50282  -17.04390
      H1     3.21779   18.97985  -17.67263
       H     5.15475   19.86277   -6.10229
       O     4.51738   19.22050   -5.81907
      H1     3.76741   19.78979   -5.58891
       H     5.74833   15.13825  -12.31813
       O     5.39118   14.48046  -11.71276
      H1     4.69763   14.87210  -11.19432
       H     2.39884   13.31863  -12.97349
       O     1.68161   13.62650  -12.36897
      H1     0.82441   13.37572  -12.68251
       H    -2.00789   16.00205  -12.75565
       O    -2.95211   15.94488  -13.00933
      H1    -3.55568   15.92860  -12.24383
       H    -1.18138   16.48472   -9.81504
       O    -2.09420   16.63852   -9.91251
      H1    -2.24567   17.57177   -9.64003

