66
frame 2 | Written by MDAnalysis XYZWriter (release 2.4.3)
       H   -15.22506   12.14813    1.67056
       O   -15.98535   12.50688    2.22353
      H1   -16.11318   13.39791    1.91837
       H   -10.35119   10.39746    1.07138
       O   -11.10311   10.42884    1.66307
      H1   -11.73392   11.05016    1.32001
       H   -17.40358   11.78895   -0.96196
       O   -16.60126   11.51649   -1.34005
      H1   -16.58953   12.03389   -2.11638
       H   -18.54499   12.61954    5.14461
       O   -18.52933   12.24167    6.02631
      H1   -18.87041   12.94763    6.59427
       H   -14.68570    8.89789   -2.02106
       O   -14.22033    8.67753   -2.87387
      H1   -14.39233    9.33632   -3.47132
       H   -16.40421    9.23503    8.02482
       O   -16.85534    9.27948    7.12063
      H1   -16.76873   10.23892    6.94197
       H   -19.62321    7.20309    5.33564
       O   -19.10874    6.41340    4.95250
      H1   -18.68381    6.95101    4.19659
       H   -17.80217   13.17246    3.15929
       O   -18.72581   13.36474    3.37732
      H1   -19.05769   14.03482    2.81398
       H   -15.53372   15.25015    0.59475
       O   -16.35834   15.09616    1.07204
      H1   -17.01235   15.16831    0.40596
       H   -13.65408   12.21073    0.20814
       O   -13.81201   11.54889    0.83812
      H1   -14.38385   10.96423    0.33702
       H   -18.31833    7.61387    2.10409
       O   -17.85099    7.77180    2.93558
      H1   -16.95855    7.39212    2.84793
       H   -14.73648    8.58840    0.21452
       O   -15.10494    9.08771   -0.49327
      H1   -16.08544    9.04632   -0.54558
       H   -13.00230    9.15230    1.57258
       O   -13.50243    8.32286    1.39816
      H1   -12.77166    7.79256    1.03022
       H   -17.47135   17.75928    2.30513
       O   -16.71689   17.29844    2.72417
      H1   -16.64479   16.44883    2.20963
       H   -17.58198   11.04956    2.39320
       O   -18.39749   10.56820    2.53386
      H1   -18.07763    9.65569    2.68920
       H   -18.34429   12.38324   -3.99048
       O   -18.06920   12.95569   -3.24522
      H1   -18.75528   12.83996   -2.57252
       H   -17.47260    7.44712    6.88782
       O   -17.81820    6.66879    7.27959
      H1   -18.35511    6.30255    6.55585
       H   -15.31179   12.27344    7.06551
       O   -16.20832   12.42669    7.46789
      H1   -16.82300   12.45526    6.68081
       H   -14.60994    7.10251    2.61784
       O   -15.30011    6.54881    3.02306
      H1   -15.37793    5.77753    2.45795
       H   -13.18919    9.81256    4.41889
       O   -12.36422    9.29290    4.46052
      H1   -11.80341    9.63001    3.76414
       H   -18.76293   15.99492   -0.90466
       O   -19.15064   15.14967   -0.64288
      H1   -19.62091   15.39337    0.13611
       H   -18.21866    8.22053   -0.35830
       O   -17.79051    8.88750   -0.89788
      H1   -18.00474    9.69243   -0.52449

