66
frame 2 | Written by MDAnalysis XYZWriter (release 2.4.3)
       H   -16.74619    5.40156    7.63299
       O   -16.02034    4.70649    7.63241
      H1   -15.49197    4.96343    8.40494
       H   -13.66558    1.72874    4.28155
       O   -14.02406    1.02847    3.65007
      H1   -14.99380    0.98491    3.83962
       H   -10.38729    7.77130    8.26222
       O    -9.70234    7.74949    8.93327
      H1    -9.98975    7.05509    9.50084
       H   -15.45394    5.52649   10.29642
       O   -14.82398    4.91814    9.95308
      H1   -14.90317    4.26157   10.63089
       H    -7.65213    3.22041    7.49021
       O    -7.21155    3.93024    7.02332
      H1    -7.12793    3.61988    6.14429
       H    -9.91695    6.63847    4.83251
       O    -9.02478    6.51718    4.43997
      H1    -8.46052    6.47383    5.24875
       H   -11.75995    3.90108    6.53819
       O   -11.14932    4.58298    6.79525
      H1   -11.21190    4.59523    7.79070
       H   -11.44264    7.22713    6.82831
       O   -10.93473    7.95436    6.40138
      H1   -11.61322    8.46200    5.88685
       H   -11.10780    1.61583    3.01224
       O   -11.43613    2.13285    2.23246
      H1   -11.05104    1.66942    1.49249
       H   -11.18429    0.03250    4.69829
       O   -10.62734    0.81457    4.69418
      H1    -9.69947    0.52359    4.72502
       H   -14.40264    1.14391   10.13826
       O   -13.92601    1.40894    9.34772
      H1   -13.94448    0.59746    8.77553
       H   -12.40983    7.54626    4.09174
       O   -12.07530    6.63744    4.18580
      H1   -12.63734    6.25120    4.96000
       H   -10.78541    1.33688    6.35269
       O   -10.78963    1.39899    7.32193
      H1   -10.01591    1.96146    7.61603
       H    -7.68467    5.75339    7.24002
       O    -7.65028    6.69538    7.18434
      H1    -8.43520    7.01864    7.66800
       H   -13.11256   -1.21302    8.21523
       O   -13.61190   -0.49911    7.65647
      H1   -12.89858   -0.03781    7.19770
       H   -10.89802    2.96269    9.37171
       O   -11.57439    3.64464    9.47307
      H1   -12.35050    3.05274    9.23812
       H   -11.53454    5.45813    2.97905
       O   -11.05667    4.94151    2.28595
      H1   -11.32059    4.01002    2.31204
       H   -14.28402    2.35815    6.06038
       O   -13.54884    2.83055    5.63737
      H1   -13.79589    3.78685    5.43446
       H    -8.72564    4.61405   10.74278
       O    -8.52884    4.62710    9.77436
      H1    -7.73855    5.19901    9.80768
       H   -14.95124    5.30543    6.15749
       O   -14.11047    5.52188    5.66116
      H1   -14.46824    5.89792    4.83335
       H    -8.13892    4.51360    4.04260
       O    -8.52879    3.62487    4.11485
      H1    -9.48678    3.77155    4.17475
       H   -13.20508    6.36164    7.41342
       O   -12.74006    6.71648    8.15577
      H1   -12.91343    6.09432    8.90422

