66
frame 2 | Written by MDAnalysis XYZWriter (release 2.4.3)
       H    10.96925   10.29489  -15.54337
       O    11.33604   11.16822  -15.16930
      H1    12.23363   10.85467  -14.79572
       H    14.70298   10.24145   -9.44981
       O    14.70960    9.42948   -9.98573
      H1    14.15504    8.85809   -9.44875
       H    12.73921    7.50759  -15.86470
       O    12.97736    8.39205  -16.15520
      H1    12.65444    8.39434  -17.08998
       H    12.88285    5.13391  -14.00050
       O    13.07422    4.62746  -13.13702
      H1    12.47213    4.94626  -12.39915
       H    11.91181   10.78230  -10.97252
       O    11.92383   11.56619  -10.34027
      H1    11.61248   11.08481   -9.48552
       H    17.25509    7.96489  -15.17815
       O    17.99269    8.10982  -15.82241
      H1    18.00883    7.28026  -16.34528
       H    11.73843    5.36503  -16.41178
       O    12.36395    5.58215  -15.71568
      H1    13.18846    5.74606  -16.11078
       H    12.44156    8.95387  -11.79363
       O    11.54373    9.36837  -11.90401
      H1    10.96787    9.07148  -11.19778
       H    14.43503    9.39781  -15.94579
       O    15.11538   10.04816  -15.89831
      H1    15.22233   10.58492  -16.72148
       H    14.30805   11.20868  -14.76645
       O    13.78651   12.03655  -14.48718
      H1    13.86050   12.11969  -13.49585
       H    17.63725    3.03592  -11.62343
       O    16.88356    3.13537  -11.01645
      H1    16.36386    3.84664  -11.46644
       H    14.04314    7.32493  -11.41808
       O    14.27727    7.85239  -12.19848
      H1    14.82393    8.55992  -11.77656
       H    16.82919    5.12039  -14.22861
       O    17.17550    4.31508  -14.63551
      H1    16.35400    3.73903  -14.69064
       H    10.78836    6.41800  -10.96066
       O    11.50884    5.83935  -10.60880
      H1    11.94169    6.43797  -10.02156
       H     9.49394    8.63256  -14.80439
       O     9.80863    8.32884  -13.95830
      H1    10.65222    8.78981  -13.84198
       H    14.47198    3.35589  -13.72801
       O    14.92534    2.97302  -14.48711
      H1    14.34890    3.18227  -15.23338
       H    16.16009    8.72137  -10.21861
       O    16.92592    8.30321  -10.60853
      H1    16.90611    8.18685  -11.55858
       H    15.38649    6.98430  -15.60930
       O    15.69515    7.11689  -14.68340
      H1    15.11327    7.65820  -14.15181
       H    15.45241    6.06860  -12.19781
       O    15.27990    5.23568  -11.70998
      H1    14.38353    5.02338  -11.97958
       H    11.87683    8.16625   -8.65320
       O    12.65328    7.67897   -8.96729
      H1    13.20203    7.39581   -8.18902
       H    16.63182   10.51461  -12.97771
       O    16.56632    9.65094  -13.41325
      H1    16.18669    9.70086  -14.29790
       H    16.06987    6.94101   -8.91288
       O    15.25626    6.55269   -8.58561
      H1    15.27804    5.69086   -8.88661

