66
frame 2 | Written by MDAnalysis XYZWriter (release 2.4.3)
       H     5.67350    4.07601   11.14355
       O     4.74535    3.94614   11.34277
      H1     4.73042    3.12313   11.88931
       H     2.79568    3.47169    8.84874
       O     3.77898    3.61644    8.91705
      H1     4.06752    3.49508    9.84019
       H     2.98563   -2.81785    7.36974
       O     3.66740   -3.53217    7.39051
      H1     3.05486   -4.22934    7.60348
       H    -1.56313    5.21139   10.19451
       O    -1.87989    4.28937   10.19377
      H1    -2.84766    4.54916   10.40720
       H    -0.71965   -0.62591   14.13081
       O    -0.90165   -0.15100   13.33689
      H1    -1.48254    0.62983   13.58194
       H     2.32757   -0.69367    9.97722
       O     2.33420   -0.19360    9.17450
      H1     3.25997   -0.04085    8.92805
       H     0.51640   -0.35532    4.09984
       O    -0.17907    0.06360    4.63178
      H1    -1.06490   -0.11079    4.22935
       H     2.68318   -0.31939   13.97735
       O     2.50464   -0.97849   14.68210
      H1     3.04944   -0.68725   15.41616
       H     0.85265   -1.91463   11.62846
       O     1.51542   -2.05381   10.98510
      H1     0.88752   -2.43060   10.35412
       H     6.31028    2.03580   12.79341
       O     6.93390    2.06380   12.07251
      H1     6.37557    1.61491   11.34607
       H    -0.12595   -1.89060    7.34061
       O    -1.03911   -2.14308    7.46924
      H1    -1.53185   -1.36229    7.20458
       H     4.85129    1.00082    7.23255
       O     3.97401    1.40082    7.35182
      H1     4.04413    2.21468    7.85428
       H     2.18512   -1.39066    6.36283
       O     1.59937   -1.71479    7.01844
      H1     1.69598   -1.07920    7.75303
       H    -1.53529    4.14973    7.92786
       O    -1.61255    3.87741    6.97936
      H1    -1.13510    4.67171    6.58908
       H     5.84053   -0.41229   10.74619
       O     5.25674    0.34230   10.54067
      H1     4.42024    0.32200   11.10507
       H     0.31740    1.85539    8.71971
       O     1.11617    2.24073    9.11610
      H1     1.74317    1.54201    9.21918
       H     0.26337    1.04475   12.02865
       O     0.98966    1.67443   11.91970
      H1     0.95767    2.00974   10.99899
       H     4.45623    5.55559    9.10319
       O     4.31511    6.52978    9.04967
      H1     4.33616    6.91235    9.92163
       H    -1.13142    1.90377    6.82121
       O    -0.97706    0.96394    6.91232
      H1    -0.63576    0.76205    5.99894
       H     3.12399    1.77814    5.81587
       O     2.84808    1.92901    4.91448
      H1     3.43336    2.63497    4.64288
       H     4.32241    1.95038   13.62177
       O     3.96010    1.73539   12.72850
      H1     3.03063    1.86042   12.88931
       H    -0.73332    4.02987   11.54020
       O    -0.13463    4.03821   12.34212
      H1     0.30544    3.17589   12.36868

