66
frame 2 | Written by MDAnalysis XYZWriter (release 2.4.3)
       H     4.27298    5.50188    1.22452
       O     4.45230    4.61800    1.06714
      H1     3.65033    4.10643    1.06174
       H     6.53351   10.34551    2.71839
       O     7.11504    9.69358    2.20376
      H1     6.49783    9.50378    1.46673
       H    11.48837    8.15843   -1.34906
       O    11.61165    9.04153   -0.99035
      H1    10.86767    9.19442   -0.39160
       H     8.26072    9.14282   -1.73823
       O     7.46826    9.22681   -2.27318
      H1     7.64576    9.68908   -3.18059
       H     9.90654    8.48853    4.09448
       O    10.14669    7.57834    4.24871
      H1    10.33343    7.30307    3.31684
       H     5.35168    3.20165    0.78749
       O     5.77366    2.56018    0.21609
      H1     5.38253    2.81744   -0.65841
       H     8.76995    9.45373    0.95353
       O     9.06439    9.47732    0.03593
      H1     8.73798   10.30381   -0.24816
       H     2.67945    7.28120    0.08218
       O     3.17047    7.96264   -0.43961
      H1     3.28454    7.53093   -1.29292
       H    10.33744    4.89627    1.17932
       O    10.36160    3.92909    0.92530
      H1    10.67409    3.77191    0.01560
       H     8.24201    6.85911    4.38957
       O     7.45710    6.53687    3.88903
      H1     7.77950    6.69249    2.98789
       H     9.46974   10.74009    4.42427
       O     9.43079   10.11005    3.70384
      H1     8.54208    9.96024    3.40815
       H     4.91101    8.43057   -0.16477
       O     5.78752    8.77732   -0.12576
      H1     5.92770    9.21679   -0.97727
       H     7.30936    7.37370    0.42894
       O     7.80465    6.74272    0.94616
      H1     7.77756    5.99037    0.37874
       H     3.72315    8.54719    2.55532
       O     3.08527    9.22416    2.90431
      H1     2.81144    9.69699    2.11308
       H    11.97232    5.91832   -1.90819
       O    11.14953    6.43222   -2.07197
      H1    11.44851    6.75755   -2.93341
       H     4.84120    6.92123   -2.36677
       O     3.91457    7.01754   -2.68013
      H1     4.10307    7.70202   -3.29795
       H     3.92261    3.90311   -1.88798
       O     4.87745    3.98011   -2.01654
      H1     5.19116    4.68738   -1.51598
       H     7.34431    6.07129   -2.78181
       O     6.65376    6.58588   -2.41642
      H1     7.09968    7.42463   -2.41640
       H     9.90965    6.98448    1.01516
       O    10.53484    6.60038    1.64023
      H1    11.48107    6.87295    1.50374
       H     4.75705    6.82859    3.38755
       O     4.84296    7.22159    2.52158
      H1     5.79752    7.47303    2.39000
       H     7.30066    3.57577   -0.25610
       O     7.92744    4.30776   -0.26610
      H1     8.78753    3.94438    0.02893
       H     9.57226    5.17622   -2.57651
       O     8.85572    4.64888   -3.00261
      H1     8.21145    4.70678   -2.31097

