66
frame 2 | Written by MDAnalysis XYZWriter (release 2.4.3)
       H     8.95308   -0.95879    0.09298
       O     8.21523   -1.58298    0.10831
      H1     8.64506   -2.40036    0.27709
       H     5.34850   -0.58112    4.15992
       O     5.27737   -0.68927    3.20927
      H1     5.81233    0.08124    2.98577
       H     4.76416   -6.69263    3.97783
       O     4.99777   -6.22173    4.74234
      H1     4.57401   -5.41921    4.75969
       H     5.52720   -2.23654    1.92637
       O     5.81788   -2.87826    1.21496
      H1     6.45903   -2.34774    0.71089
       H     6.00897   -5.56609    2.88484
       O     6.85504   -5.27892    2.51441
      H1     6.63997   -4.49764    1.91416
       H     3.23120   -1.90159    3.93629
       O     2.59232   -1.24283    4.23676
      H1     3.11000   -0.44202    4.31642
       H     2.09809   -1.35822   -0.75143
       O     2.26203   -2.23067   -1.12046
      H1     2.70294   -2.16967   -1.90826
       H     3.75306   -3.57132    5.54255
       O     3.96259   -3.64844    4.59503
      H1     3.10042   -3.71534    4.11342
       H     9.46938   -1.24218    2.83269
       O     8.89743   -0.98831    3.50317
      H1     8.08094   -0.73257    3.01639
       H     2.53049   -4.05178    1.57483
       O     1.83494   -4.13880    2.23079
      H1     1.05570   -3.68198    1.85920
       H     8.70899   -5.09722    0.27242
       O     8.62524   -4.26918   -0.13633
      H1     9.26158   -4.30477   -0.90725
       H     5.63637    0.83135   -2.37137
       O     4.82957    0.33382   -2.58038
      H1     4.34849    0.42542   -1.73242
       H     6.76399   -0.46740    6.50013
       O     6.52711    0.35262    6.92963
      H1     7.00637    0.36266    7.76609
       H     7.12425    1.35823    1.30049
       O     7.06064    1.03321    2.17222
      H1     7.01608    1.76572    2.79450
       H     8.31521   -5.47044    3.86968
       O     9.21893   -5.39160    4.15130
      H1     9.48516   -6.22394    4.64644
       H     5.72707   -4.58357   -1.44411
       O     6.50721   -4.11419   -1.77314
      H1     7.13228   -4.31117   -1.09181
       H     8.67601   -1.71164   -1.97458
       O     9.34662   -1.89246   -2.62063
      H1     9.86607   -1.09974   -2.76417
       H     6.52275   -2.38261    4.92626
       O     7.02111   -1.85377    5.52884
      H1     7.83676   -1.74828    5.04556
       H     3.26400   -3.75027   -0.41476
       O     3.77589   -4.30356    0.15598
      H1     4.52686   -3.76192    0.56364
       H     9.46352   -6.93341    1.81280
       O     8.65898   -6.95374    1.29123
      H1     7.97203   -6.63462    1.93440
       H     4.64510    1.15730    0.32029
       O     3.81322    0.74990   -0.02390
      H1     3.37024    0.17595    0.61847
       H     2.35784   -0.78897    2.45462
       O     2.08889   -0.81651    1.53860
      H1     1.15282   -0.96179    1.51095

