66
frame 3 | Written by MDAnalysis XYZWriter (release 2.4.3)
       H    16.15748    6.30130    5.07903
       O    17.03101    5.84614    4.75806
      H1    17.78131    6.41499    5.04292
       H    13.31795    3.81250    1.94987
       O    13.99730    3.72176    1.25130
      H1    14.14562    2.79589    1.15044
       H    12.90440    9.18337    2.14407
       O    13.07483    8.21937    2.08346
      H1    13.28888    8.09590    1.13956
       H    16.07705   11.44077    0.11309
       O    15.87903   10.59613    0.54813
      H1    15.74506   10.81256    1.45621
       H    11.05528    7.55787   -1.48286
       O    11.20922    8.33863   -0.94589
      H1    10.60340    8.93560   -1.36728
       H    12.83047    5.12950    3.83326
       O    12.70967    4.17882    3.65739
      H1    11.81409    3.96010    3.96694
       H     9.42300    7.66285    4.20913
       O     9.16281    6.89186    4.72410
      H1     9.72209    6.12726    4.45016
       H    11.63930    7.79919    7.15809
       O    11.49387    8.39016    6.35577
      H1    10.51202    8.33670    6.28801
       H    17.58694    8.97903    2.07956
       O    17.79865    9.31339    3.02804
      H1    18.65334    8.91505    3.28072
       H    16.18704    9.42091    4.21857
       O    15.73873    9.76749    4.98108
      H1    15.71831    9.05804    5.67092
       H    16.61884    9.07406    0.58829
       O    17.43835    8.42219    0.61694
      H1    17.01663    7.58895    0.46361
       H    12.87809   10.74253   -2.44301
       O    12.43941   10.03434   -2.92389
      H1    12.13341    9.49740   -2.19198
       H    10.83535    4.83310    1.23383
       O    10.61598    3.91726    1.02544
      H1    11.17641    3.69130    0.22716
       H    15.53572    6.99979    7.01608
       O    15.21605    7.33195    6.18257
      H1    14.31573    7.03511    6.02157
       H     9.67854   10.32899    5.33871
       O     9.35818    9.83628    4.59098
      H1     8.64166   10.37960    4.20864
       H    13.17595    7.30578    3.83094
       O    13.08153    6.63661    4.54127
      H1    12.19658    6.85266    4.80840
       H    12.54385    9.73753    5.57778
       O    13.09124   10.49694    5.32040
      H1    13.97481   10.11881    5.14919
       H    10.36325    6.63246    1.38523
       O    11.03416    6.45636    2.08036
      H1    11.74349    7.06708    1.94389
       H    14.60831    7.04714   -0.54935
       O    14.07348    7.79853   -0.55238
      H1    13.18987    7.54302   -0.88739
       H    14.04137    9.23000   -2.94385
       O    14.80102    8.65427   -2.93455
      H1    14.71373    8.16736   -2.09258
       H    12.33147   10.72585    3.65092
       O    11.83845   10.77146    2.81179
      H1    10.95474   10.61212    3.18415
       H    12.84667   13.19331    1.45247
       O    11.99674   13.06808    0.94235
      H1    11.77398   12.14742    1.21843

