66
frame 3 | Written by MDAnalysis XYZWriter (release 2.4.3)
       H     8.76306    8.58951  -12.30413
       O     8.92714    9.27467  -11.62289
      H1     9.04089    8.82829  -10.70612
       H    11.98768   10.53509  -15.76994
       O    11.49501   11.38871  -15.85802
      H1    12.20035   11.98255  -15.47533
       H     9.56730   14.60248  -13.43495
       O     9.21912   15.18269  -14.11034
      H1     8.82674   14.58014  -14.78384
       H     7.92983   15.36108  -12.58202
       O     7.07872   15.14749  -12.15115
      H1     6.89929   15.89379  -11.54190
       H     4.76390   14.11365  -17.43632
       O     5.04523   13.82073  -16.58697
      H1     4.38872   13.16264  -16.29348
       H    10.57364   13.49965  -11.26917
       O    10.26027   13.64347  -12.14970
      H1    10.10087   12.76952  -12.56083
       H     8.44555    7.95135  -17.30950
       O     8.48461    8.78490  -16.90541
      H1     9.06069    9.33514  -17.41286
       H     5.35606   10.03083  -15.25583
       O     4.82679    9.55700  -15.86947
      H1     5.12553    9.87294  -16.74475
       H     7.92359   13.09206  -15.94745
       O     7.77985   13.98885  -16.20667
      H1     6.79684   14.05650  -16.27884
       H     5.80685   13.27142  -18.72295
       O     6.46170   13.00047  -19.39113
      H1     7.33596   13.31439  -19.14226
       H     9.54640   14.76174  -19.08269
       O     9.30858   14.01773  -18.54916
      H1     8.77675   14.36948  -17.81772
       H     9.07684   10.29720  -19.22604
       O     9.94453   10.26388  -18.71819
      H1    10.28933   11.16519  -18.58561
       H     3.06862    8.87055  -14.59365
       O     2.19794    8.70062  -14.31246
      H1     2.09678    8.70053  -13.37506
       H     3.31008   11.33727  -15.86135
       O     3.38470   12.15145  -15.31245
      H1     3.87937   11.81711  -14.52281
       H    10.11340   11.24116  -14.05779
       O     9.33828   11.49047  -13.56001
      H1     9.32189   10.89917  -12.83676
       H     8.85797    8.20674  -15.12154
       O     9.40886    7.96817  -14.36327
      H1    10.05621    8.70409  -14.26296
       H     7.28551   10.30253  -11.21441
       O     6.34978   10.51207  -11.10878
      H1     6.32486   11.42288  -10.84273
       H     6.38215   11.52712  -18.21532
       O     6.25815   10.57933  -18.11825
      H1     6.76122   10.19323  -18.84062
       H     6.08299   11.31715  -13.96136
       O     5.29899   11.00790  -13.59966
      H1     5.53554   10.65981  -12.74113
       H     5.26598    7.63725  -15.65939
       O     5.41900    6.77165  -15.28254
      H1     5.82112    7.03088  -14.44304
       H    10.74090   13.13917  -18.38445
       O    11.51699   12.58808  -18.31849
      H1    11.67729   12.34143  -17.36168
       H     8.00195   11.25603  -14.80100
       O     7.30347   11.31865  -15.42928
      H1     7.30505   10.53536  -16.01230

