66
frame 3 | Written by MDAnalysis XYZWriter (release 2.4.3)
       H    17.13721    3.65633    5.85727
       O    17.50237    3.05717    6.58966
      H1    16.94765    3.16444    7.38238
       H    15.61054    5.38758   11.78819
       O    15.12509    6.24186   11.81351
      H1    14.32267    6.08144   12.28968
       H    18.09671    4.76972   10.61933
       O    17.50981    4.85837   11.36814
      H1    17.81898    4.08383   11.87335
       H    14.35224    3.21219    9.22666
       O    15.15153    3.67123    9.53225
      H1    15.15785    4.55639    9.15329
       H    17.99656    2.29014   12.97932
       O    18.64206    2.64665   12.38508
      H1    19.32801    2.96837   13.02332
       H    18.49990    7.99003    8.08288
       O    18.43729    7.55467    7.20172
      H1    18.34086    8.30687    6.54580
       H    14.70382    0.91343   11.99977
       O    14.24925    0.16798   12.41981
      H1    13.59814   -0.14084   11.82713
       H    14.77563   10.05976    9.16773
       O    15.02203    9.47118    9.97154
      H1    14.79425    8.57985    9.61190
       H    14.74291    3.50236   13.63391
       O    14.55351    3.93606   14.46112
      H1    14.27674    3.23197   15.05158
       H    19.41022    2.89451    9.34063
       O    19.16155    3.67220    8.84972
      H1    18.59125    3.38622    8.11522
       H    17.75962    0.00941    7.54337
       O    17.36609    0.56915    8.19337
      H1    16.58528    0.05169    8.48502
       H    15.53572    6.99979    7.01608
       O    15.21605    7.33195    6.18257
      H1    14.31573    7.03511    6.02157
       H    16.47308   -0.24578   10.59539
       O    17.10626    0.34254   11.06839
      H1    17.71785    0.69038   10.38035
       H    19.48050    0.40180    6.41224
       O    18.95167    0.74131    5.67689
      H1    18.55524    1.57362    6.04575
       H    18.65251    8.55415   13.98038
       O    19.22303    9.07583   13.40952
      H1    20.13888    8.75394   13.58071
       H    15.78040    3.11065   11.25017
       O    15.72488    2.49636   11.98501
      H1    16.34861    1.75988   11.82226
       H    18.46646    6.35087   11.79543
       O    19.00211    7.11057   11.56968
      H1    18.94832    7.82245   12.16773
       H    16.28867    1.36474    6.60712
       O    15.66827    1.12162    5.85733
      H1    14.94890    1.72868    5.77972
       H    18.06809    5.00689   15.88059
       O    18.65213    5.72736   15.45029
      H1    18.01048    6.39372   15.06128
       H    16.37827    8.60184   14.33262
       O    16.89871    7.81758   14.07122
      H1    16.56424    7.53174   13.24214
       H    13.82764    6.24787    8.76560
       O    14.73354    6.23177    9.07497
      H1    14.69465    6.23419   10.02838
       H    19.01713    1.40331   15.87032
       O    18.37365    1.62131   15.20016
      H1    17.77894    2.24369   15.60819

