66
frame 3 | Written by MDAnalysis XYZWriter (release 2.4.3)
       H     5.47103   -5.20930  -15.29492
       O     6.31556   -4.64046  -15.05051
      H1     5.83951   -3.87454  -14.67634
       H    -3.62337   -1.99979  -17.15826
       O    -2.91916   -2.66934  -16.96313
      H1    -2.70562   -2.57015  -16.02812
       H     3.12329   -5.27668  -12.29445
       O     2.73842   -4.97563  -13.19133
      H1     1.76728   -5.07090  -13.26045
       H     2.44183   -4.92604  -19.35582
       O     2.44884   -5.78128  -18.87813
      H1     2.98269   -6.30499  -19.46753
       H     4.73998   -5.08618  -18.77755
       O     5.56356   -5.40511  -18.41681
      H1     6.22129   -4.70795  -18.35743
       H    -1.94679   -2.55690  -13.92393
       O    -1.24506   -2.70659  -14.47561
      H1    -0.84387   -3.54902  -14.22721
       H     1.84881   -0.71372  -16.20007
       O     2.14485   -0.63975  -17.12003
      H1     2.73211    0.12437  -17.20229
       H     4.81372   -2.16316  -13.42962
       O     5.76709   -2.13674  -13.53680
      H1     5.86567   -1.60387  -14.33333
       H     3.08366   -1.77724  -12.38986
       O     3.06191   -2.20342  -13.25997
      H1     3.00291   -3.16316  -13.16790
       H    -1.24313   -7.75038  -14.67051
       O    -1.02565   -7.50304  -13.74736
      H1    -0.41323   -8.16561  -13.38027
       H     1.85753   -1.69474  -14.17777
       O     1.08622   -1.22901  -14.67523
      H1     0.36037   -1.87757  -14.76098
       H    -1.54227   -5.22427  -19.09974
       O    -2.46287   -5.18859  -19.26953
      H1    -2.59007   -4.49629  -19.94014
       H    -1.32023   -0.09785  -16.26852
       O    -1.77335    0.52948  -15.69597
      H1    -1.37575    0.39393  -14.83401
       H     0.07533   -1.12877  -17.58541
       O    -0.86541   -0.80587  -17.75819
      H1    -1.51990   -1.53572  -17.55756
       H     4.47386   -8.30949  -15.33976
       O     4.38875   -9.15086  -15.80323
      H1     4.71879   -9.90490  -15.18405
       H     3.67537   -6.07281  -14.52559
       O     4.12451   -6.36286  -15.33425
      H1     3.54390   -6.06768  -16.05344
       H    -0.49569   -2.04274  -10.63519
       O     0.05679   -2.61173  -11.26575
      H1    -0.27720   -2.34103  -12.09631
       H    -0.41543   -7.32323  -18.99316
       O    -0.19062   -6.69861  -18.27177
      H1     0.76612   -6.66950  -18.34789
       H     2.60726   -3.57018  -16.48972
       O     1.80323   -4.02829  -16.22178
      H1     1.34005   -4.41501  -16.97510
       H     3.12228   -2.01389  -17.05789
       O     3.89048   -2.67502  -17.14211
      H1     4.52415   -2.37956  -16.46444
       H    -2.40475   -7.91241  -16.43984
       O    -1.98054   -7.03002  -16.33686
      H1    -1.39799   -6.93926  -17.08575
       H    -0.00199   -5.88964  -14.00303
       O     0.26025   -4.97571  -14.04939
      H1     0.69803   -4.86216  -14.90523

