66
frame 0 | Written by MDAnalysis XYZWriter (release 2.4.3)
       H     9.59911    6.38662   10.45453
       O     9.68464    7.30174   10.17821
      H1     8.87649    7.80380   10.50448
       H     5.43775    3.10416    9.83739
       O     4.99597    3.09760   10.71470
      H1     4.96550    2.18273   10.98221
       H     7.24983    2.97319    5.05484
       O     7.69681    2.09869    5.03795
      H1     7.35932    1.76732    5.85310
       H     2.17314    3.98133   10.05793
       O     2.86217    4.12563    9.44728
      H1     3.58911    3.77023    9.96608
       H     1.87495    4.47436    6.34421
       O     0.99791    4.68227    6.60529
      H1     1.10150    5.59496    6.97906
       H     4.37239    4.34485    5.38525
       O     3.57843    3.83126    5.49347
      H1     3.28091    3.55427    4.63630
       H     6.33767    4.87895    4.22322
       O     6.18205    4.60895    5.10719
      H1     6.55429    5.23834    5.77029
       H     9.46627    7.35033    4.49410
       O    10.29757    6.92546    4.84436
      H1    10.98872    7.05829    4.22326
       H     8.37400    9.15285    4.24964
       O     8.09453    8.21129    4.16287
      H1     8.22950    7.92663    3.28487
       H     9.45672    6.77765    8.25177
       O     9.22742    6.22761    7.52724
      H1     9.35515    6.62629    6.67497
       H     9.99055   10.07649    5.54750
       O     9.02629   10.20215    5.77108
      H1     8.75023   11.05284    5.39448
       H     7.01309    6.51373    7.45365
       O     6.18819    6.07637    7.23964
      H1     5.45164    6.42692    7.74171
       H     4.86253    1.16750    7.11426
       O     3.96314    1.46249    6.96015
      H1     3.75368    2.37419    6.63948
       H     7.93798   10.69228    9.03149
       O     7.86294   11.14606    8.19007
      H1     8.35861   10.67381    7.50288
       H    10.53927    3.50286    7.45182
       O    10.69025    3.38930    8.37388
      H1    10.08643    2.72485    8.68991
       H     4.25532    6.80059   11.91379
       O     4.43126    7.65224   11.39921
      H1     5.39366    7.65640   11.28428
       H     2.02002    6.97359    8.41874
       O     1.15196    7.01705    7.98315
      H1     0.94638    7.89809    7.63613
       H     3.40244    5.77226    8.98760
       O     3.77688    6.69505    8.93331
      H1     3.98455    6.91224    9.86211
       H     7.12224    8.37982   12.08997
       O     6.95215    8.33017   11.14852
      H1     6.94412    9.25349   11.03084
       H     5.46881    7.62834    3.89270
       O     4.91729    7.82524    3.12128
      H1     5.49651    7.99401    2.37546
       H    10.63892    2.08594    5.67696
       O    10.24231    2.94381    5.64838
      H1     9.31482    2.78248    5.40447
       H     6.06271    4.23145    7.80212
       O     6.44251    3.46556    8.27918
      H1     7.24026    3.74048    8.75034

