66
frame 3 | Written by MDAnalysis XYZWriter (release 2.4.3)
       H    17.61555  -11.98654   15.30333
       O    17.64367  -12.59239   16.08891
      H1    16.71842  -12.85097   16.28115
       H     9.40160  -13.81606   14.55397
       O     9.93416  -14.20119   15.26807
      H1     9.33265  -14.88038   15.61082
       H    14.40439  -16.68633   14.31940
       O    14.77142  -16.45331   15.17491
      H1    14.02033  -16.38857   15.79565
       H    12.95219  -13.36068   15.32271
       O    12.40646  -13.59216   16.08572
      H1    11.56715  -13.81356   15.64605
       H    13.15350  -10.84088   15.69121
       O    12.62632  -10.28728   15.08720
      H1    12.08683  -10.83343   14.48388
       H    11.04568  -15.51442   14.04147
       O    11.20840  -16.44378   13.78537
      H1    11.18017  -16.78648   14.67955
       H    14.56648  -12.29639   17.33434
       O    14.09237  -11.50316   17.10286
      H1    14.73413  -10.80127   17.32245
       H    11.69107  -10.21538   16.76729
       O    11.42275  -10.14296   17.70487
      H1    11.52651  -11.02726   18.02650
       H    12.60164   -8.92633   18.50256
       O    13.26569   -8.41167   19.01916
      H1    12.91450   -7.69948   19.57320
       H    10.84941  -12.96697   18.83414
       O    11.75838  -12.75452   18.66902
      H1    11.95370  -12.97517   17.74951
       H    14.92603   -8.36744   15.55780
       O    14.22716   -8.20182   14.84953
      H1    13.69944   -8.99710   14.75839
       H     7.03256  -11.87858   19.23566
       O     6.62947  -11.79341   18.39510
      H1     7.43112  -11.52578   17.87839
       H     7.71921  -16.49775   15.35583
       O     8.15415  -16.08687   16.12886
      H1     7.41554  -15.57680   16.45317
       H    14.70604  -13.27688   14.10003
       O    13.78487  -13.21910   13.83870
      H1    13.72022  -12.51108   13.27337
       H    16.42718   -9.41971   18.14338
       O    15.77959   -9.10542   17.50651
      H1    15.14421   -8.57865   17.98620
       H    13.07613  -16.08534   18.00854
       O    13.10075  -15.96375   17.03814
      H1    12.80613  -15.02146   16.81999
       H    12.14796  -16.86860   19.97354
       O    11.85060  -17.72404   19.55856
      H1    12.60919  -18.04435   19.15894
       H    15.50903  -13.96581   18.22349
       O    15.30577  -13.95266   17.31442
      H1    14.50653  -14.49072   17.12154
       H    10.49556  -18.23575   16.50796
       O    11.31535  -17.94829   16.06112
      H1    11.65252  -17.27640   16.65023
       H    17.03407  -14.15169   15.25871
       O    16.50771  -14.62783   14.63991
      H1    16.09606  -15.29837   15.22450
       H     8.20894   -9.40140   17.05325
       O     8.65104  -10.28451   17.01983
      H1     9.59512  -10.06554   17.19201
       H     7.79692  -10.36230   15.39093
       O     7.55099  -10.22624   14.47678
      H1     6.59551  -10.08154   14.43669

