66
frame 3 | Written by MDAnalysis XYZWriter (release 2.4.3)
       H    -4.38811    4.90455    9.84946
       O    -4.46554    4.64600   10.75189
      H1    -4.80606    3.74668   10.76555
       H    -0.88814    3.65595   12.85926
       O    -1.53895    3.56897   13.58065
      H1    -1.02445    2.96153   14.13899
       H    -4.58515    4.05707   16.73915
       O    -3.63934    3.82736   16.70390
      H1    -3.22637    4.36577   16.00947
       H    -2.17150    5.72445    9.57270
       O    -2.16493    4.71403    9.56684
      H1    -2.67736    4.51241   10.39128
       H    -6.10695    7.86395   11.90949
       O    -5.70554    7.17025   11.33244
      H1    -4.79803    7.09879   11.58362
       H    -0.35536    1.16788   15.44651
       O    -0.54675    2.09993   15.73901
      H1    -0.67197    1.98422   16.64753
       H    -3.65363    5.61421   19.27956
       O    -3.83709    4.69115   19.40766
      H1    -3.83292    4.39525   18.46829
       H    -3.88795    9.53418   12.97951
       O    -3.62083    8.64803   12.78972
      H1    -3.20342    8.34993   13.61336
       H    -0.68703    6.25115   18.23841
       O    -0.71415    6.51076   17.27277
      H1    -0.38035    7.41825   17.31485
       H    -5.44231    2.05076   14.84653
       O    -4.61124    1.63374   15.19823
      H1    -4.30508    2.29883   15.80506
       H    -2.07722    4.97202   14.31652
       O    -2.39824    5.73572   14.87339
      H1    -1.87872    5.97590   15.62084
       H     0.98201    6.44605   12.95959
       O     1.05063    7.02154   13.78113
      H1     1.10232    6.43822   14.53753
       H     0.49252    5.49029   16.29952
       O     1.29737    5.30320   15.74753
      H1     1.61076    4.39070   15.84273
       H    -2.78484   10.44986   15.13844
       O    -2.67526    9.51655   15.31971
      H1    -1.89539    9.43178   15.87657
       H    -6.49771    5.98898   13.43549
       O    -6.54162    5.13310   12.96670
      H1    -5.87440    5.23817   12.28526
       H     1.07694    2.64413   16.05564
       O     2.02385    2.77950   16.13895
      H1     2.27083    2.45755   17.09393
       H    -0.01213    1.12134   12.52969
       O     0.34406    1.92390   12.04098
      H1     0.21436    1.74486   11.10122
       H    -2.51603    2.05502   13.23771
       O    -2.85801    1.27459   12.70711
      H1    -3.36886    0.81308   13.31539
       H    -0.12714    8.40923   13.68158
       O    -0.56977    9.17323   13.22764
      H1    -1.54038    8.96483   13.26645
       H    -3.72463    1.91107   11.18310
       O    -4.61924    1.94495   10.64245
      H1    -5.08715    1.14836   10.96364
       H     0.62625    5.36767   10.95660
       O     0.72162    4.75301   11.66928
      H1     0.65155    3.85155   11.27306
       H    -4.71298    8.95084   17.10500
       O    -4.69015    8.32304   16.40471
      H1    -4.03147    8.68568   15.77339

