66
frame 3 | Written by MDAnalysis XYZWriter (release 2.4.3)
       H     4.26126   13.36307   17.23200
       O     3.56179   13.09473   17.83976
      H1     3.75161   13.59008   18.66801
       H     4.25894   11.27863   17.86294
       O     4.61840   10.36072   17.85917
      H1     5.42461   10.45239   18.42080
       H    -6.05903   12.30927   16.34466
       O    -5.19603   12.61944   16.63075
      H1    -5.31957   13.54454   16.86547
       H     1.80180    8.70992   19.84772
       O     1.15925    9.40029   19.65515
      H1     1.03372    9.23448   18.70702
       H    -3.39194   12.38635   19.56457
       O    -2.54789   12.01907   19.75852
      H1    -2.71319   11.09005   19.72087
       H     1.96879   14.20712   18.00698
       O     1.08727   14.52550   18.04469
      H1     1.14243   15.47862   18.15895
       H    -4.05696   11.60205   13.63556
       O    -4.71906   11.39935   12.97897
      H1    -4.44725   11.78252   12.15248
       H     3.37283    9.45874   15.20055
       O     2.97700    9.13158   16.05657
      H1     3.54806    9.62784   16.66714
       H     0.00312   12.74226   17.91224
       O    -0.37453   11.87495   17.77509
      H1    -1.15616   11.84451   18.29121
       H    -0.48857   16.98363   17.08710
       O    -0.14997   16.93826   17.99021
      H1     0.16939   17.83310   18.08160
       H    -0.54814   12.87887   16.08335
       O    -0.34156   13.44787   15.30077
      H1    -0.69164   14.34611   15.40800
       H    -1.88529   16.13849   18.59705
       O    -2.85082   16.00406   18.58742
      H1    -3.08610   15.19361   19.04679
       H    -0.68703    6.25115   18.23841
       O    -0.71415    6.51076   17.27277
      H1    -0.38035    7.41825   17.31485
       H    -2.78484   10.44986   15.13844
       O    -2.67526    9.51655   15.31971
      H1    -1.89539    9.43178   15.87657
       H    -4.02672   16.59363   15.32747
       O    -3.83729   15.74273   15.78701
      H1    -3.60337   15.96036   16.70019
       H    -2.02793   12.67474   15.00229
       O    -2.87992   12.17302   15.07772
      H1    -3.46187   12.55636   15.70074
       H     0.74925    9.34701   16.41246
       O    -0.03084    9.41635   16.99658
      H1    -0.07934   10.39374   17.25517
       H    -2.07941   15.78137   15.51466
       O    -1.16653   15.99529   15.35138
      H1    -1.15741   16.49834   14.48919
       H     2.11385   14.75425   14.62626
       O     2.47036   14.15385   15.26923
      H1     1.65408   13.71215   15.49390
       H    -5.55981   10.23201   18.83644
       O    -4.66127   10.31724   18.44788
      H1    -4.74873   11.23953   18.02471
       H    -4.71298    8.95084   17.10500
       O    -4.69015    8.32304   16.40471
      H1    -4.03147    8.68568   15.77339
       H    -4.19514    7.54089   18.12278
       O    -3.87582    7.37379   19.00610
      H1    -4.65502    7.40392   19.61517

