66
frame 3 | Written by MDAnalysis XYZWriter (release 2.4.3)
       H   -15.57128   -5.61763   10.38646
       O   -16.22739   -6.27517   10.21278
      H1   -16.94114   -5.74808    9.84195
       H   -18.64789    1.32723   10.31855
       O   -19.60509    1.33342   10.34318
      H1   -19.88221    1.73928   11.20719
       H   -16.68447   -2.85543   12.80259
       O   -16.80616   -1.94320   12.47158
      H1   -17.56666   -1.95448   11.87099
       H   -16.46410    2.27089    4.86186
       O   -16.09025    1.69241    5.55233
      H1   -16.86757    1.36069    5.97733
       H   -13.89601   -3.33934    9.69372
       O   -14.70296   -3.77560    9.95669
      H1   -15.30179   -3.13910   10.32170
       H   -15.19633    2.24294   12.49037
       O   -16.09512    1.82228   12.45818
      H1   -16.15986    1.39292   11.51329
       H   -16.80386    1.10334    9.28244
       O   -16.57475    0.39468    9.92767
      H1   -15.96375   -0.33172    9.62332
       H   -12.40037   -2.96030    4.38753
       O   -12.60584   -2.20292    4.92105
      H1   -13.49533   -2.11790    5.04387
       H   -12.94110    1.81562   11.04236
       O   -12.35602    1.30042   10.40343
      H1   -12.90159    0.51729   10.13196
       H   -13.58935   -5.80456    4.46671
       O   -14.22157   -5.12647    4.61741
      H1   -14.10421   -4.91647    5.56774
       H   -17.18867   -1.51866    8.25239
       O   -16.44219   -2.09183    8.44633
      H1   -15.91153   -2.01828    7.63517
       H   -12.28193   -0.76535    8.15005
       O   -12.83730   -0.02819    7.81382
      H1   -12.15464    0.61425    7.59837
       H   -13.25765   -1.58691   11.42149
       O   -14.01511   -1.06924   11.08831
      H1   -14.81232   -1.27349   11.62152
       H   -19.25323   -1.38126    7.44389
       O   -18.58871   -0.72037    7.31936
      H1   -18.19390   -0.88321    6.41889
       H   -18.19916   -3.61185    4.91647
       O   -18.32702   -3.50109    3.96019
      H1   -17.59902   -4.05917    3.66278
       H   -17.83810   -0.18491    4.34004
       O   -17.39686   -0.95691    4.78956
      H1   -17.62128   -1.68326    4.18166
       H   -18.75180   -4.84888    9.29699
       O   -17.94095   -4.78160    8.81894
      H1   -17.54979   -3.90424    8.81857
       H   -19.56981   -0.72575   10.92285
       O   -19.35175   -1.48466   11.48568
      H1   -19.67006   -1.30105   12.40029
       H   -15.67209   -5.98027    6.65613
       O   -16.43212   -6.35399    6.23913
      H1   -16.21979   -6.87995    5.48142
       H   -13.60460   -5.50373    7.56992
       O   -14.00158   -4.69175    7.33354
      H1   -14.19668   -4.26807    8.19395
       H   -18.76064   -5.59018    6.88536
       O   -19.67120   -5.51039    6.72399
      H1   -19.78205   -5.78700    5.80198
       H   -15.66387   -1.23474    5.71832
       O   -14.87232   -1.57837    6.19158
      H1   -14.34312   -0.86350    6.52753

