66
frame 3 | Written by MDAnalysis XYZWriter (release 2.4.3)
       H    -6.05903   12.30927   16.34466
       O    -5.19603   12.61944   16.63075
      H1    -5.31957   13.54454   16.86547
       H    -8.96521   14.65121   14.54224
       O    -8.08753   14.32413   14.34190
      H1    -8.23218   13.38506   14.54097
       H    -9.09783   14.29160   17.57767
       O    -9.16409   15.12989   17.15169
      H1    -8.96799   15.77329   17.83087
       H    -8.03079   16.07129   19.95256
       O    -7.12160   15.81155   19.87906
      H1    -6.94156   16.20917   19.00686
       H    -3.39194   12.38635   19.56457
       O    -2.54789   12.01907   19.75852
      H1    -2.71319   11.09005   19.72087
       H     1.96879   14.20712   18.00698
       O     1.08727   14.52550   18.04469
      H1     1.14243   15.47862   18.15895
       H   -11.34198   16.69710   15.22249
       O   -10.42366   16.70906   14.86915
      H1   -10.00314   16.75280   15.74280
       H    -5.69474   19.80558   16.69765
       O    -5.93999   19.78629   17.62631
      H1    -5.16722   19.43686   18.04346
       H    -4.90806   18.65248   14.26374
       O    -4.78182   18.15330   15.07462
      H1    -5.65001   17.91675   15.39248
       H     0.00312   12.74226   17.91224
       O    -0.37453   11.87495   17.77509
      H1    -1.15616   11.84451   18.29121
       H    -0.48857   16.98363   17.08710
       O    -0.14997   16.93826   17.99021
      H1     0.16939   17.83310   18.08160
       H    -0.54814   12.87887   16.08335
       O    -0.34156   13.44787   15.30077
      H1    -0.69164   14.34611   15.40800
       H    -7.25774   15.19417   16.94501
       O    -6.33686   15.09083   17.24677
      H1    -5.73253   15.23812   16.49393
       H    -2.47054   16.62930   12.49526
       O    -1.83811   17.20658   12.90600
      H1    -1.02087   17.15153   12.31150
       H    -1.88529   16.13849   18.59705
       O    -2.85082   16.00406   18.58742
      H1    -3.08610   15.19361   19.04679
       H    -3.70180   18.90101   19.40367
       O    -4.20978   18.26949   18.89275
      H1    -3.74452   17.44300   18.87944
       H    -7.97600   17.72789   14.22540
       O    -7.80019   18.20294   15.00538
      H1    -8.64410   18.71916   15.15607
       H    -4.02672   16.59363   15.32747
       O    -3.83729   15.74273   15.78701
      H1    -3.60337   15.96036   16.70019
       H    -2.02793   12.67474   15.00229
       O    -2.87992   12.17302   15.07772
      H1    -3.46187   12.55636   15.70074
       H    -7.72358   17.83391   16.70459
       O    -7.80605   17.96371   17.73786
      H1    -7.01161   18.56343   17.82135
       H    -2.07941   15.78137   15.51466
       O    -1.16653   15.99529   15.35138
      H1    -1.15741   16.49834   14.48919
       H    -5.55981   10.23201   18.83644
       O    -4.66127   10.31724   18.44788
      H1    -4.74873   11.23953   18.02471

