66
frame 0 | Written by MDAnalysis XYZWriter (release 2.4.3)
       H   -15.75084  -13.80782    8.57393
       O   -15.68414  -13.93624    7.62819
      H1   -15.67845  -13.03334    7.26725
       H   -11.84447  -17.21328    6.92943
       O   -11.38550  -17.55676    6.21785
      H1   -11.64296  -17.23176    5.42140
       H   -18.42700  -16.31768    4.49503
       O   -18.87594  -15.45897    4.47650
      H1   -19.80290  -15.74643    4.36660
       H   -19.01799  -16.89227    9.59102
       O   -18.60904  -16.63528   10.41594
      H1   -18.32612  -15.74909   10.24393
       H   -12.83029  -15.26884    8.48695
       O   -12.15221  -15.83929    8.92322
      H1   -12.62555  -16.45675    9.52132
       H   -16.31185  -17.54642    2.82462
       O   -15.73768  -17.45001    2.01300
      H1   -15.77022  -18.33472    1.53168
       H   -17.50942  -14.03763    7.16759
       O   -18.42577  -13.96377    6.94430
      H1   -18.59744  -14.54095    6.17503
       H   -11.44597  -14.00101    5.96437
       O   -10.61296  -13.88815    5.60242
      H1    -9.99350  -14.39866    6.10739
       H   -15.43815  -15.91316   11.52766
       O   -15.47978  -14.93792   11.69382
      H1   -15.92239  -14.89089   12.61617
       H    -8.86551  -17.04144    8.87116
       O    -9.72680  -17.38406    9.10473
      H1   -10.35783  -16.62722    8.93639
       H   -13.08065  -19.04660    7.65951
       O   -13.95274  -18.91050    7.22719
      H1   -13.72768  -19.19789    6.29357
       H   -12.69643  -14.58372   10.32772
       O   -12.89600  -14.07376   11.08187
      H1   -13.75394  -14.36605   11.43534
       H   -14.61646  -13.11702    2.95249
       O   -15.34120  -13.32569    3.56973
      H1   -15.13368  -12.80918    4.36155
       H   -18.07631  -13.35348    8.96686
       O   -18.14801  -13.58055    9.91096
      H1   -17.90400  -12.75253   10.39742
       H   -19.22481  -18.50573    8.12160
       O   -18.88003  -17.85604    7.44760
      H1   -19.59447  -17.75581    6.82044
       H   -15.70362  -17.76706    7.07833
       O   -16.38696  -17.27176    6.63761
      H1   -17.23050  -17.51782    7.06163
       H   -18.06395  -18.78260    4.30597
       O   -17.40696  -18.07747    4.24322
      H1   -16.87092  -17.97351    5.04669
       H   -13.98526  -13.79660    7.32618
       O   -13.09382  -14.09987    7.10165
      H1   -13.26746  -14.84228    6.51694
       H   -14.84653  -15.02663    4.51839
       O   -14.49006  -15.65913    5.14190
      H1   -15.21007  -15.87595    5.75945
       H   -12.44117  -18.63814   10.48974
       O   -12.96898  -17.91169   10.88885
      H1   -13.84350  -18.32459   10.76885
       H   -14.05125  -17.28653    2.52739
       O   -13.41054  -17.22451    3.24885
      H1   -13.86274  -16.59376    3.81254
       H   -16.84424  -17.38076   10.74766
       O   -15.96032  -17.79141   10.95454
      H1   -16.11277  -18.76485   11.12999

