66
frame 4 | Written by MDAnalysis XYZWriter (release 2.4.3)
       H     0.45550  -19.23094  -16.31294
       O     1.31172  -18.97910  -16.06507
      H1     1.76894  -18.96662  -16.90464
       H     9.23594  -15.57535  -17.65323
       O    10.08855  -15.55184  -17.17219
      H1    10.80063  -15.62717  -17.76781
       H    11.59100  -17.74446  -16.24473
       O    12.09428  -17.80052  -15.42618
      H1    11.63391  -17.17073  -14.87852
       H     5.21223  -16.05260  -15.85183
       O     5.53829  -15.46371  -15.15639
      H1     6.30487  -15.85150  -14.70920
       H     6.77957  -13.51183  -12.15187
       O     5.98438  -13.15903  -12.59432
      H1     6.17927  -12.22555  -12.49371
       H     3.46580  -17.20339  -16.70661
       O     4.21722  -17.83538  -16.73787
      H1     4.39384  -18.21872  -15.82801
       H     5.10886  -12.18151  -14.93450
       O     5.28947  -12.80671  -15.64296
      H1     5.46200  -13.58586  -15.11643
       H     7.17940  -17.74514   -9.75363
       O     7.52775  -16.88860  -10.13383
      H1     7.50728  -16.98439  -11.11907
       H    13.68760  -17.29765  -15.14626
       O    14.57140  -16.92043  -15.01629
      H1    14.95560  -17.54993  -14.44730
       H     3.10840  -19.90453  -12.82201
       O     2.85530  -19.08068  -12.41784
      H1     3.16496  -18.42833  -13.07206
       H    12.20845  -14.41848  -19.25955
       O    12.41818  -15.16986  -18.67384
      H1    13.25559  -14.98688  -18.24741
       H     8.10596  -17.75363  -16.19398
       O     8.03825  -18.65800  -15.86189
      H1     8.09501  -19.08903  -16.68565
       H    10.70092  -15.46851  -10.36821
       O     9.82614  -15.15599  -10.12949
      H1     9.23368  -15.91687  -10.19638
       H     4.14111  -16.06344  -14.36801
       O     3.42790  -16.55857  -13.87241
      H1     2.55105  -16.13510  -14.10413
       H    12.82669  -16.88268  -18.75136
       O    12.59664  -17.88198  -18.64251
      H1    13.43679  -18.34588  -18.88168
       H     4.29511  -16.30871  -12.19746
       O     4.50046  -15.83800  -11.31946
      H1     5.17183  -15.17098  -11.58820
       H    10.56681  -14.64423  -14.18481
       O    10.22709  -15.51564  -14.51198
      H1    10.20759  -15.41231  -15.50635
       H     6.43215  -19.71033  -18.65951
       O     5.62874  -19.23469  -18.89976
      H1     5.30744  -18.67896  -18.16549
       H     9.22897  -13.46315  -12.41221
       O     8.62074  -13.35641  -11.67105
      H1     9.12252  -13.73136  -10.91116
       H     8.94602  -19.75278  -13.01540
       O     8.50369  -19.18766  -12.38060
      H1     7.76956  -19.69441  -12.09193
       H     8.32788  -17.50542  -18.59873
       O     7.85500  -16.76960  -18.19746
      H1     7.05244  -16.72237  -18.68468
       H     8.62137  -16.13008  -13.83873
       O     7.86725  -16.67237  -13.67635
      H1     8.26258  -17.53896  -13.44974

