66
frame 3 | Written by MDAnalysis XYZWriter (release 2.4.3)
       H     4.26126   13.36307   17.23200
       O     3.56179   13.09473   17.83976
      H1     3.75161   13.59008   18.66801
       H     4.25894   11.27863   17.86294
       O     4.61840   10.36072   17.85917
      H1     5.42461   10.45239   18.42080
       H     6.01782   13.12102   15.18702
       O     6.96953   13.29900   15.33168
      H1     7.27221   12.55534   15.88726
       H     3.77024   13.10128   14.56980
       O     4.56248   12.75506   14.20947
      H1     4.58376   12.97605   13.28752
       H     3.04567   16.82409   12.55042
       O     2.32344   16.85056   13.23342
      H1     1.55212   16.63839   12.64375
       H     5.16465   17.45783   11.47941
       O     4.80844   16.61325   11.75574
      H1     4.87883   16.04237   10.97796
       H     6.44645   15.69944   12.32454
       O     7.33748   15.91872   12.53364
      H1     7.76323   15.06005   12.56030
       H     3.32575   11.29389    7.99654
       O     2.40236   11.58357    8.19445
      H1     2.39148   11.73353    9.15316
       H     9.70520   13.29012   13.61740
       O     8.79133   13.23408   13.17410
      H1     8.03366   13.03988   13.72289
       H     3.37283    9.45874   15.20055
       O     2.97700    9.13158   16.05657
      H1     3.54806    9.62784   16.66714
       H     5.51738   13.54911   10.92811
       O     5.12158   12.93481   11.58483
      H1     4.19511   12.86345   11.30577
       H     4.16497   16.97515   15.46630
       O     4.86026   17.13776   16.14064
      H1     5.33030   16.32310   16.34168
       H     6.52046   14.46063   16.53168
       O     6.23303   15.02663   17.23873
      H1     6.53276   14.53467   18.03407
       H     1.51208   15.44120   10.00644
       O     2.06809   14.80550    9.55971
      H1     2.38819   15.18240    8.76453
       H     6.56924   12.02544   11.02540
       O     7.11608   11.46903   10.40411
      H1     8.02079   11.63988   10.48118
       H     0.65545   10.58941   12.83389
       O     1.24923   11.36940   12.69592
      H1     0.73617   12.16481   12.82058
       H     7.21458   17.00360   13.99354
       O     7.20425   17.65864   14.72792
      H1     6.37977   17.49385   15.25399
       H     6.57412   14.66537    9.26031
       O     5.75852   14.87538    9.75726
      H1     5.13629   15.00535    9.02996
       H     5.57408    9.43886   12.66187
       O     6.09028    9.04107   11.94434
      H1     6.44021    9.78247   11.39905
       H     3.46494   10.11117   13.15263
       O     4.20017   10.02601   13.78543
      H1     4.51356   10.88496   14.08961
       H     2.11385   14.75425   14.62626
       O     2.47036   14.15385   15.26923
      H1     1.65408   13.71215   15.49390
       H     2.37086   13.29591   10.20476
       O     2.65751   12.52044   10.70800
      H1     2.04969   12.14978   11.40200

