66
frame 5 | Written by MDAnalysis XYZWriter (release 2.4.3)
       H    -0.58606   16.87479   -3.77055
       O    -1.03609   16.52197   -2.96776
      H1    -1.50982   17.25904   -2.53706
       H     1.78607   15.83209   -1.64028
       O     0.87192   15.62864   -1.38409
      H1     0.29900   15.79718   -2.11717
       H    -4.16172    9.57017   -3.57811
       O    -4.10368   10.31268   -3.01440
      H1    -4.88841   10.20740   -2.46700
       H     0.45981   17.13585   -6.08121
       O     0.74049   17.19916   -5.15759
      H1     1.31118   17.98646   -5.03721
       H     0.81962   13.97311   -7.33817
       O     0.37708   14.01811   -8.20881
      H1     1.01127   13.74334   -8.85028
       H     0.12201   11.59058   -4.73446
       O     0.84395   11.22674   -5.30046
      H1     0.42430   10.79961   -6.07412
       H    -7.08543   16.50028   -2.16629
       O    -6.48798   16.45551   -1.36921
      H1    -6.08547   15.52366   -1.45069
       H    -3.64127   16.54850   -4.92944
       O    -4.43060   17.07784   -5.03919
      H1    -4.49946   17.53680   -4.18488
       H    -4.39191   12.09680   -3.58540
       O    -4.65683   12.93701   -3.94529
      H1    -5.67471   12.88988   -3.99246
       H    -0.04387   13.47029    0.93284
       O    -0.18242   13.55423   -0.02918
      H1     0.12980   14.46846   -0.19548
       H    -6.16751   15.23415   -6.70904
       O    -6.26825   16.17942   -6.75687
      H1    -5.71256   16.49273   -6.01721
       H    -3.16482   11.95457    0.91492
       O    -2.89611   12.25570    0.04263
      H1    -2.46750   13.07229    0.26571
       H    -2.05337   18.02797   -0.32758
       O    -2.66282   18.65993   -0.74165
      H1    -3.39551   18.89263   -0.11187
       H    -4.84481   13.69783   -2.36301
       O    -5.09405   13.96496   -1.45736
      H1    -4.43833   14.12983   -0.75452
       H    -4.07261   18.60199   -2.07418
       O    -4.76136   18.33894   -2.71768
      H1    -5.45056   18.00204   -2.15059
       H     1.12160   14.81733   -5.34557
       O     1.38479   13.97871   -5.66072
      H1     0.79800   13.29608   -5.32577
       H    -3.02707   20.17020   -5.52510
       O    -2.77631   19.33991   -5.93707
      H1    -3.19280   18.64973   -5.41242
       H    -2.19180   14.11506   -6.96105
       O    -2.27558   14.03726   -7.89526
      H1    -1.37215   14.04301   -8.24622
       H     0.59940   12.17819   -2.48488
       O    -0.18399   12.15899   -3.02901
      H1    -0.76419   11.60539   -2.49289
       H    -3.35373   14.16875   -4.64637
       O    -2.77901   14.94205   -4.95744
      H1    -2.08271   14.99962   -4.25201
       H    -3.29602   15.47673   -8.39763
       O    -3.67740   16.08173   -9.03598
      H1    -3.71537   16.91761   -8.56371
       H     0.30445   15.83950   -8.07122
       O     0.33922   16.81388   -7.94454
      H1    -0.30370   17.22989   -8.51196

