66
frame 5 | Written by MDAnalysis XYZWriter (release 2.4.3)
       H    -3.62217    2.82625   -2.27314
       O    -3.74615    2.19053   -3.01351
      H1    -4.68560    2.02280   -3.03168
       H    -4.89546   -2.59345   -7.66553
       O    -4.22403   -1.85191   -7.70741
      H1    -4.38873   -1.42848   -8.57811
       H    -0.45830   -1.94001   -5.18200
       O    -1.21124   -1.85578   -4.54444
      H1    -0.75225   -1.59432   -3.75467
       H    -4.24312   -0.51539   -6.35484
       O    -4.41495    0.15820   -5.68349
      H1    -3.48663    0.48573   -5.48846
       H    -2.95843   -4.69873   -7.62779
       O    -3.59942   -5.29525   -7.21626
      H1    -3.99499   -5.94093   -7.90552
       H    -4.25207   -2.20022   -3.63788
       O    -3.45883   -2.48627   -3.19999
      H1    -2.73231   -2.19125   -3.72928
       H    -0.40387   -5.61930   -6.45837
       O    -0.41224   -5.01166   -5.71498
      H1    -0.01911   -5.49608   -4.97188
       H    -1.51990   -4.92632    0.99452
       O    -1.32907   -4.63725    0.08528
      H1    -0.37583   -4.62552   -0.01744
       H     0.26962   -3.58285   -6.28159
       O     0.60515   -2.71571   -6.63512
      H1     1.16218   -2.87651   -7.45816
       H    -1.28715   -3.14921   -7.40594
       O    -2.02793   -3.40316   -7.93276
      H1    -2.79694   -2.77556   -7.75392
       H    -1.35945   -0.13044   -5.08743
       O    -1.50195    0.77491   -5.41824
      H1    -1.27805    1.29806   -4.65476
       H    -0.84338   -1.09697   -1.51352
       O    -0.23305   -0.81579   -2.21268
      H1    -0.40676    0.08479   -2.37769
       H    -5.26496   -0.23091    0.01258
       O    -5.63475   -0.37090    0.94963
      H1    -6.37312   -0.94531    0.86548
       H    -6.23932   -0.89157   -2.91895
       O    -6.57279   -0.42533   -2.16584
      H1    -6.89422   -1.15413   -1.61645
       H    -3.28750   -6.43966   -4.82529
       O    -3.77514   -5.87352   -4.18821
      H1    -3.45206   -4.97589   -4.36988
       H    -1.18059    2.08541   -1.99471
       O    -0.63113    1.86317   -2.76242
      H1     0.16003    2.35482   -2.51364
       H    -5.71522   -1.44325   -5.01349
       O    -5.93455   -2.21665   -4.42854
      H1    -6.62638   -2.73443   -4.80779
       H    -3.48931   -4.64930   -1.45801
       O    -4.36764   -4.93869   -1.28262
      H1    -4.66252   -4.78441   -2.14881
       H    -2.03948   -1.72786    1.34873
       O    -1.47084   -2.03265    0.60487
      H1    -1.64276   -2.98911    0.53641
       H    -2.65004    0.66062    0.07366
       O    -2.33879    1.18281    0.86860
      H1    -3.12614    1.33016    1.39914
       H    -3.53987   -1.25799   -1.35466
       O    -3.51172   -0.28829   -1.07539
      H1    -3.42477    0.21665   -1.89519
       H    -5.06260   -4.39586   -7.20016
       O    -5.91682   -3.91885   -7.46688
      H1    -5.90484   -3.93416   -8.43429

