66
frame 5 | Written by MDAnalysis XYZWriter (release 2.4.3)
       H     9.53192   18.27628   11.83937
       O     8.79702   17.60975   11.70378
      H1     8.55944   17.46253   12.61691
       H    12.75389   20.12862   12.37720
       O    13.11626   19.60859   13.11886
      H1    12.98371   18.70929   12.83847
       H    11.19062   19.38644   15.58330
       O    11.16063   18.52930   15.12792
      H1    12.09827   18.24953   15.09609
       H     7.47240   16.77550    8.30032
       O     7.72144   16.01467    8.85092
      H1     7.67327   15.23561    8.28756
       H     3.60029   18.43674    6.57545
       O     3.36562   18.28204    7.45116
      H1     2.42606   18.60859    7.48866
       H     3.63008   17.35205   12.81303
       O     2.67615   17.45421   12.90620
      H1     2.17291   16.65894   12.63938
       H     5.71906   17.55290   12.28065
       O     5.58444   16.76383   12.79544
      H1     5.71916   16.11265   12.08009
       H     6.97698   16.25835   13.82379
       O     7.77893   15.98829   14.36356
      H1     7.84241   14.98760   14.18220
       H     8.98620   19.86058    9.72676
       O     8.55718   19.10663    9.26973
      H1     8.11785   18.58714    9.94203
       H     2.61448   15.20385    6.75541
       O     3.08370   15.70408    7.48266
      H1     3.13072   16.64955    7.34285
       H    10.24704   16.50140   10.54927
       O    11.16181   16.28691   10.24361
      H1    11.72647   16.45567   11.07145
       H    11.70934   17.58235    8.98607
       O    11.62368   18.39616    8.47299
      H1    10.68705   18.54955    8.41619
       H     7.91037   18.70121    7.59366
       O     7.79927   18.09363    6.85375
      H1     7.10553   18.36256    6.24000
       H     5.94678   13.35596   10.96125
       O     5.70802   12.43080   11.24075
      H1     4.83783   12.22796   10.85581
       H     9.17212   16.36321    7.21308
       O     9.66627   15.82594    6.60090
      H1     9.12585   15.61840    5.84558
       H    12.69296   19.32085    9.59991
       O    13.54792   19.58231   10.00600
      H1    13.96788   18.77301   10.39528
       H    11.51746   19.34710    4.74900
       O    10.60692   19.49238    4.37760
      H1    10.18154   18.63719    4.44563
       H    11.90151   17.72470    6.84164
       O    11.80501   17.40914    5.90095
      H1    11.14193   16.75388    6.06889
       H     6.25253   15.65708    9.95640
       O     5.87323   15.14843   10.70996
      H1     4.90361   15.02966   10.56566
       H    10.90648   14.56627   10.38588
       O    11.14183   13.81069   10.89408
      H1    10.34707   13.29964   11.18091
       H    13.06619   16.40169   12.71453
       O    12.84861   17.08949   12.09517
      H1    13.62757   17.15194   11.52142
       H     5.51058   18.46157    4.20941
       O     6.43697   18.59725    4.48436
      H1     6.66665   19.47314    4.22346

