66
frame 5 | Written by MDAnalysis XYZWriter (release 2.4.3)
       H    -2.25580   -8.27370    0.71709
       O    -3.05568   -8.65392    1.11814
      H1    -3.51173   -7.92875    1.60087
       H     0.58507   -8.13024    1.77858
       O     1.12469   -8.80732    1.30874
      H1     1.93439   -8.27343    1.10390
       H    -4.70531   -7.61271   -1.15268
       O    -4.97627   -8.50357   -0.82977
      H1    -4.42834   -8.47779   -0.05084
       H    -0.61905   -8.47681   -2.19624
       O     0.01296   -8.65062   -2.94943
      H1    -0.49424   -9.10876   -3.61163
       H     2.09469  -11.04566    3.85937
       O     2.51841  -10.51517    3.19848
      H1     1.82181  -10.13326    2.68601
       H     0.21314  -13.11600   -4.37242
       O     0.58789  -12.92890   -3.49462
      H1     0.04450  -13.30962   -2.76074
       H     1.73856  -14.86534    0.17861
       O     1.35814  -13.98553    0.18551
      H1     1.94735  -13.42439   -0.37744
       H    -3.69326  -11.23698   -3.64102
       O    -3.51062  -11.72937   -4.44030
      H1    -4.23572  -11.75631   -5.05186
       H    -5.34069  -12.19726    1.20866
       O    -5.29624  -12.40564    2.15708
      H1    -5.13294  -13.32685    2.26928
       H    -0.59100   -6.69221   -0.16122
       O    -0.87089   -7.62684   -0.19751
      H1    -0.09443   -8.12400    0.21622
       H    -5.13628  -15.10709   -0.41336
       O    -4.23716  -14.85299   -0.56693
      H1    -3.69626  -15.65659   -0.56856
       H     0.59357   -9.56408   -1.72098
       O     0.91675  -10.15884   -1.02613
      H1     1.21556   -9.67267   -0.23634
       H    -3.60754  -10.31164    3.01703
       O    -3.34216  -10.99974    3.67339
      H1    -3.96255  -11.72759    3.55603
       H    -3.86406  -13.25502   -3.76541
       O    -3.95977  -14.20436   -3.53445
      H1    -4.07502  -14.24353   -2.54673
       H    -4.61917  -11.69085   -1.45599
       O    -5.27242  -12.22513   -0.93732
      H1    -4.89511  -13.11515   -0.85353
       H    -0.13409   -9.56747    5.18069
       O    -0.06872   -9.33314    4.22488
      H1     0.54257   -8.58082    4.27061
       H    -0.92261  -13.24719   -1.05292
       O    -0.57929  -13.99820   -1.60907
      H1     0.22746  -14.34396   -1.23011
       H    -0.37188  -11.16146    3.34620
       O    -0.22041  -11.89415    2.75747
      H1    -0.82233  -11.66295    2.01246
       H    -0.77084  -13.31964    3.49214
       O    -1.22693  -14.13692    3.78032
      H1    -1.92715  -13.96646    4.46044
       H     2.30705  -11.22769   -1.13477
       O     2.97135  -11.91493   -1.07046
      H1     3.40138  -12.10741   -1.91550
       H    -3.90895   -9.69539   -1.58740
       O    -3.46110  -10.43695   -2.10590
      H1    -2.71566  -10.70383   -1.54639
       H    -2.17110  -10.58983    0.18063
       O    -1.53695  -11.20118   -0.31121
      H1    -0.70757  -10.68778   -0.39045

