66
frame 5 | Written by MDAnalysis XYZWriter (release 2.4.3)
       H     2.98602    3.75621    9.69093
       O     3.44938    4.05105   10.46552
      H1     4.31781    3.74565   10.53894
       H    -0.41081    3.90659   13.24734
       O    -0.86302    4.02999   14.06225
      H1    -0.65447    3.39120   14.75341
       H    -4.03509    3.83720   16.81017
       O    -3.32297    4.06801   17.44900
      H1    -2.87007    4.82667   16.95414
       H    -1.87595    4.54799    9.15712
       O    -2.66650    4.02092    9.00649
      H1    -3.41484    4.60947    8.80822
       H    -0.46733   -0.94208   13.29661
       O    -1.28874   -0.98203   12.72022
      H1    -1.64541   -0.11972   12.83089
       H     0.22042    5.94403    9.40628
       O    -0.39284    5.56367   10.05869
      H1    -0.51005    6.33884   10.71244
       H    -0.11203    0.85585   15.29963
       O    -0.12477    1.82979   15.52616
      H1    -0.54310    1.66626   16.35216
       H     3.28121    0.65172   13.77079
       O     3.15351   -0.25767   14.15223
      H1     3.70082   -0.28718   14.99377
       H     1.35917   -0.35198   14.82072
       O     0.48520   -0.70931   14.68678
      H1     0.29664   -1.32348   15.41574
       H    -1.62077    5.54764   15.46456
       O    -2.04191    5.95600   16.22824
      H1    -1.31474    6.11478   16.88526
       H     0.70763    5.70842   14.81872
       O     1.09554    6.54960   14.42822
      H1     1.35584    7.08647   15.11143
       H    -1.33029    3.16746   18.15922
       O    -0.88413    2.36383   18.37881
      H1    -0.19631    2.62175   19.05473
       H     1.31495    4.67025   17.42864
       O     1.84732    4.82182   16.63106
      H1     2.32469    4.01451   16.44567
       H     1.85308    2.13901   15.97287
       O     2.76156    2.31639   16.10902
      H1     2.96195    1.77891   16.93937
       H     2.88312    4.69445   12.32043
       O     3.21238    5.25964   12.97120
      H1     2.39306    5.39094   13.52198
       H     3.33286    6.78679   12.24223
       O     3.48220    7.68396   11.91327
      H1     4.38460    7.94536   12.27123
       H     0.87677    0.56649   10.66236
       O     1.26593    1.50702   10.59802
      H1     1.31380    1.72297    9.61079
       H    -2.36360    2.22232   13.60635
       O    -2.80210    1.38401   13.80555
      H1    -2.86942    1.40290   14.72164
       H    -0.02722    7.08277   13.16744
       O    -0.55303    7.25712   12.35480
      H1    -0.89202    8.15018   12.35404
       H     3.87394    2.61202   13.35238
       O     3.57118    1.88759   12.79763
      H1     3.13422    2.28044   12.02719
       H    -4.39658    1.98806   13.05040
       O    -5.09294    2.26103   12.52817
      H1    -5.89633    2.04457   13.08540
       H     0.37589    4.45406   11.11205
       O     0.73500    3.87249   11.85306
      H1     0.85659    3.00389   11.40343

