66
frame 4 | Written by MDAnalysis XYZWriter (release 2.4.3)
       H   -16.87150   -5.28290   -2.82425
       O   -17.62044   -5.71148   -2.42543
      H1   -18.41013   -5.21284   -2.75315
       H   -15.54395   -7.35311   -1.98031
       O   -14.94501   -7.21454   -1.23760
      H1   -14.16810   -6.84943   -1.66307
       H    -9.58013   -2.73787    2.31516
       O    -8.72360   -2.33574    2.42783
      H1    -8.78816   -1.74862    3.19359
       H   -18.02500   -4.36959   -1.07161
       O   -18.57578   -4.14359   -0.32682
      H1   -18.88930   -3.24702   -0.61995
       H   -14.52538   -4.95430   -3.56494
       O   -15.41198   -4.68320   -3.59388
      H1   -15.62320   -4.97464   -4.54015
       H   -13.34013   -3.66357   -0.47276
       O   -12.40169   -3.54179   -0.62242
      H1   -11.95947   -3.47549    0.21162
       H   -14.96605   -2.75451   -4.37440
       O   -14.96365   -2.17891   -5.11398
      H1   -14.04320   -2.26096   -5.40608
       H   -13.85958   -0.58884    2.79172
       O   -13.82251   -1.41053    2.27947
      H1   -14.30028   -2.12066    2.70810
       H   -16.13939   -1.28863   -0.02641
       O   -16.76140   -1.09256    0.64261
      H1   -16.26730   -1.21887    1.44789
       H   -14.42106   -4.49342    2.71635
       O   -15.15818   -4.06371    2.31909
      H1   -15.08442   -4.19694    1.36883
       H   -12.26780   -1.32647   -4.37922
       O   -12.19455   -1.41719   -5.35202
      H1   -12.55984   -0.63732   -5.70883
       H   -12.90055   -6.33918    3.88422
       O   -13.24724   -5.41795    4.00253
      H1   -13.49327   -5.39921    4.92358
       H   -11.56494   -4.26694   -3.55591
       O   -11.12828   -4.47874   -2.72655
      H1   -11.69818   -4.07484   -1.99922
       H   -11.17444   -4.12378    2.28661
       O   -11.31369   -3.28187    1.85185
      H1   -12.00759   -2.85018    2.32797
       H   -11.02004   -6.19615    0.98315
       O   -10.23299   -5.92713    1.50075
      H1    -9.43092   -6.14453    0.93558
       H   -14.69222   -1.50533   -2.30378
       O   -15.52781   -1.49101   -1.84398
      H1   -16.00157   -0.91032   -2.41288
       H   -13.29298   -6.55715   -3.78885
       O   -12.99944   -6.30197   -2.91930
      H1   -12.35167   -5.65390   -2.95262
       H   -18.04344   -5.44673    1.36783
       O   -17.61108   -6.10038    1.93789
      H1   -16.78510   -6.11012    1.50934
       H   -12.27754   -0.38479   -2.24508
       O   -12.84570   -1.23342   -2.31569
      H1   -12.59973   -1.75304   -1.50930
       H    -9.85226   -3.57641   -1.74211
       O    -9.02543   -3.35442   -1.43020
      H1    -8.68003   -4.22203   -1.22092
       H   -13.19635   -7.58120    0.06424
       O   -12.30710   -7.20598    0.08013
      H1   -11.78158   -7.87868   -0.31004
       H   -15.31922   -4.75040   -1.54057
       O   -15.28987   -4.05758   -0.86831
      H1   -15.52218   -3.28663   -1.44864

