66
frame 4 | Written by MDAnalysis XYZWriter (release 2.4.3)
       H    -5.37103   -2.91653  -11.18423
       O    -4.68425   -3.62565  -10.98737
      H1    -3.84976   -3.18710  -10.89303
       H    -3.32637   -2.07765  -17.28077
       O    -2.84670   -2.79398  -16.83456
      H1    -2.85589   -2.51937  -15.89520
       H    -2.75228   -1.13055  -15.00199
       O    -2.63729   -1.82669  -14.40430
      H1    -2.47231   -1.37247  -13.52749
       H    -1.50849    1.15766  -10.58331
       O    -1.13765    1.97970  -10.98708
      H1    -1.94096    2.48343  -10.94727
       H     1.51384   -0.60865  -16.10555
       O     1.78500   -0.69820  -17.04594
      H1     2.26144    0.12962  -17.23633
       H    -7.42232   -2.91761  -11.48955
       O    -6.97043   -2.09558  -11.29205
      H1    -7.18155   -1.50668  -12.03804
       H    -3.19633   -6.41665  -17.11537
       O    -3.81199   -5.69812  -17.29784
      H1    -3.37071   -4.86208  -17.16632
       H    -0.12486    0.36711  -14.27291
       O    -0.57919    1.15840  -14.02287
      H1    -1.08373    1.00711  -13.19589
       H    -4.40188   -1.39778  -18.93758
       O    -4.02128   -0.71226  -18.31895
      H1    -3.19931   -0.54568  -18.84136
       H    -3.38129    0.43666  -12.30181
       O    -2.54500    0.00830  -12.46210
      H1    -2.19550   -0.20534  -11.55779
       H     1.94714   -0.73741  -14.07579
       O     1.14736   -1.08137  -14.45813
      H1     0.74974   -1.80294  -13.95585
       H    -2.25370   -0.45257   -9.09907
       O    -1.74444   -0.57757   -9.87902
      H1    -1.35779   -1.44952   -9.81949
       H    -1.49459   -0.01557  -16.74579
       O    -2.08294    0.50359  -16.16096
      H1    -1.58712    0.81323  -15.39747
       H    -2.81499    2.25399  -16.88636
       O    -3.11256    3.12666  -17.10044
      H1    -3.20031    3.60021  -16.28634
       H     0.29586   -0.82707  -17.80600
       O    -0.62878   -1.13372  -18.02481
      H1    -0.72112   -2.07691  -17.87738
       H    -3.73464   -5.34183  -11.30344
       O    -3.28780   -6.17648  -11.49426
      H1    -3.47373   -6.16096  -12.47687
       H    -4.10132   -6.03677  -15.21779
       O    -4.24258   -6.60750  -14.44711
      H1    -5.17578   -6.52147  -14.26864
       H     1.40350   -3.49008  -12.89170
       O     0.45740   -3.34081  -13.07570
      H1     0.29595   -3.98862  -13.74222
       H    -5.77160   -0.18920   -8.95595
       O    -5.13265   -0.40173   -9.62239
      H1    -5.66151   -0.90660  -10.34039
       H    -6.21641   -3.01778  -14.38711
       O    -5.69465   -3.64861  -13.90458
      H1    -4.83989   -3.36529  -14.05230
       H    -6.31333   -5.29471  -13.75933
       O    -6.83782   -6.12820  -13.85908
      H1    -7.23892   -6.07809  -14.76079
       H     0.04491   -6.14395  -14.47540
       O     0.80446   -5.56017  -14.60027
      H1     1.23687   -5.66253  -15.42624

