66
frame 4 | Written by MDAnalysis XYZWriter (release 2.4.3)
       H    -9.63673  -16.04350   -8.03393
       O    -9.12613  -16.08428   -8.88751
      H1    -8.87604  -17.02096   -9.06081
       H    -1.94081  -16.83517  -10.38801
       O    -2.83673  -16.45691  -10.26294
      H1    -2.73999  -15.51911  -10.13839
       H    -6.99896  -17.52918  -14.03577
       O    -7.23051  -17.47849  -13.10520
      H1    -6.71081  -18.06448  -12.56703
       H    -6.70022  -10.24509  -10.81041
       O    -6.61860   -9.70696  -11.62568
      H1    -5.73273   -9.39809  -11.57051
       H   -11.24056  -15.27986  -11.62596
       O   -11.18844  -15.06636  -10.69307
      H1   -10.44488  -15.48501  -10.23233
       H    -9.68318  -10.11791  -13.07174
       O   -10.07607  -10.95350  -13.20599
      H1    -9.46589  -11.54261  -13.73804
       H    -8.00632  -15.80346  -12.67057
       O    -8.09398  -14.81488  -12.66513
      H1    -7.90391  -14.55926  -13.56890
       H    -6.26044  -14.87338  -12.13215
       O    -5.29913  -14.64523  -12.00661
      H1    -5.35568  -13.71158  -12.26474
       H   -10.62913  -11.53056   -9.78306
       O   -10.39641  -11.13910   -8.90508
      H1   -10.87921  -11.66784   -8.29315
       H    -5.00735  -15.73700  -14.53052
       O    -5.66901  -15.26923  -15.07421
      H1    -5.09767  -14.46970  -15.15187
       H    -7.49174  -12.59857  -14.13420
       O    -8.36238  -12.66613  -14.57034
      H1    -8.23521  -12.57190  -15.53285
       H    -5.56552  -15.63641   -7.21786
       O    -6.35878  -16.18285   -7.51312
      H1    -6.50053  -15.69116   -8.32947
       H    -5.82159  -11.87615  -13.95715
       O    -6.22318  -12.12507  -13.10343
      H1    -6.48439  -11.34490  -12.62015
       H    -4.32118  -14.23322  -10.05342
       O    -3.46285  -13.81666   -9.78445
      H1    -3.69068  -13.18608   -9.04120
       H   -10.87153  -12.13141  -12.00500
       O   -11.34401  -12.32088  -11.20691
      H1   -11.18478  -13.31456  -11.01847
       H    -2.75983  -11.54755   -7.56062
       O    -3.44986  -12.29352   -7.63803
      H1    -4.27023  -11.89998   -7.29929
       H    -3.04448  -11.23580  -11.20802
       O    -2.55057  -12.03209  -11.48159
      H1    -2.84970  -12.77276  -10.91593
       H    -6.88346  -14.00598  -10.64345
       O    -6.98354  -14.30820   -9.73970
      H1    -7.90289  -14.60278   -9.71252
       H   -10.53911  -17.59643  -13.00147
       O    -9.78532  -18.18191  -13.05318
      H1    -8.96471  -17.68059  -12.90475
       H    -6.07748  -10.48042   -6.28702
       O    -5.78925  -11.20192   -6.84801
      H1    -6.39619  -11.28469   -7.62659
       H    -4.23705  -17.50038   -9.40017
       O    -4.77635  -18.22291   -8.95407
      H1    -5.41611  -17.78658   -8.41114
       H    -7.61096  -11.94455   -9.15308
       O    -6.99472  -11.19378   -9.30108
      H1    -7.42630  -10.50225   -8.80722

