66
frame 4 | Written by MDAnalysis XYZWriter (release 2.4.3)
       H    16.70562  -10.78595  -16.14312
       O    17.63022  -10.90614  -16.28969
      H1    18.00734  -10.08534  -15.86415
       H    15.65428   -1.40435  -17.06798
       O    15.43397   -0.55844  -16.69928
      H1    15.91715   -0.47824  -15.88828
       H    15.98467   -5.90390  -19.78444
       O    16.93572   -5.92652  -19.40789
      H1    16.85203   -6.03311  -18.46742
       H    11.06021   -2.36590  -19.90485
       O    10.85117   -2.57401  -18.97835
      H1    11.45802   -3.27132  -18.68633
       H    17.05092   -5.19105  -14.32392
       O    16.54803   -6.05546  -14.26814
      H1    15.80381   -5.85736  -13.72074
       H    14.68073   -5.01301  -15.39706
       O    14.52040   -5.05383  -16.31984
      H1    13.54408   -4.96618  -16.30288
       H    11.93708   -4.69750  -14.45678
       O    11.97573   -5.32669  -15.21005
      H1    11.43055   -6.04901  -14.90999
       H    16.17466   -3.30707  -18.50535
       O    15.46876   -2.86503  -17.97968
      H1    15.02287   -3.62532  -17.52477
       H    13.84504   -2.35491  -14.82197
       O    13.19418   -2.23145  -15.49762
      H1    13.08408   -1.30356  -15.72610
       H    12.25802   -9.88264  -17.09212
       O    12.95824   -9.95208  -17.74618
      H1    12.62601   -9.39596  -18.49992
       H    14.34869  -10.63441  -18.72416
       O    15.13509  -10.84935  -19.27348
      H1    15.54532   -9.99917  -19.41683
       H    18.68165   -7.91739  -14.45817
       O    18.90100   -8.51112  -15.20588
      H1    19.03490   -7.82496  -15.87512
       H    17.80030   -4.49369  -19.43637
       O    17.95820   -3.57674  -19.14263
      H1    18.69311   -3.62467  -18.50909
       H    19.11919   -3.72319  -16.11355
       O    19.63024   -3.42694  -16.78196
      H1    19.36542   -2.47071  -16.88010
       H    17.55279   -0.21760  -18.46643
       O    17.75923   -0.53522  -19.34025
      H1    17.79774   -1.52805  -19.24634
       H     9.27829   -6.04108  -18.77375
       O    10.04716   -6.64737  -18.94558
      H1     9.95558   -6.86069  -19.86815
       H    14.09746  -10.50702  -16.43880
       O    14.83437  -10.27818  -15.81922
      H1    15.04754   -9.31236  -15.85702
       H    18.31787   -2.76572  -14.05608
       O    17.54321   -3.37932  -14.08871
      H1    17.52394   -3.72044  -13.20735
       H    16.32074   -7.41137  -16.07601
       O    15.62329   -7.75835  -16.63840
      H1    14.97085   -7.06866  -16.57051
       H    18.16263  -10.87452  -17.94203
       O    18.53967  -10.56332  -18.76843
      H1    19.22239  -11.22962  -19.04973
       H    11.24494   -5.35089  -18.26712
       O    12.09447   -4.86845  -18.13166
      H1    11.96874   -4.78759  -17.15596
       H    19.82899   -5.81773  -16.73438
       O    19.14413   -6.42201  -17.05692
      H1    19.54786   -7.04555  -17.67840

