66
frame 5 | Written by MDAnalysis XYZWriter (release 2.4.3)
       H   -17.61661   -2.84183  -11.64874
       O   -17.22362   -2.84538  -12.56068
      H1   -17.16815   -3.81005  -12.74047
       H   -17.55252    0.86766  -15.02879
       O   -17.21802    1.26038  -14.17503
      H1   -17.06399    2.18831  -14.44152
       H   -15.64326    0.38086  -13.46292
       O   -15.09988   -0.04813  -12.79427
      H1   -14.26637   -0.29188  -13.19198
       H   -16.82108   -6.37544  -13.97665
       O   -17.40689   -5.66965  -13.65071
      H1   -18.13952   -6.06494  -13.09604
       H   -15.39038   -2.54671  -12.22233
       O   -14.50893   -2.96518  -11.97031
      H1   -14.77561   -3.86697  -11.76926
       H   -11.77200   -4.60159  -11.12066
       O   -12.00995   -5.02837  -10.24364
      H1   -12.06310   -4.22893   -9.71436
       H   -17.60058    0.05534  -17.21613
       O   -17.79316   -0.49176  -16.39968
      H1   -17.21943   -1.25071  -16.42852
       H   -14.07902   -9.96936  -12.07939
       O   -14.67731   -9.75397  -12.80154
      H1   -14.77601   -8.83810  -13.05270
       H   -19.65993   -3.69493  -10.51678
       O   -18.70716   -3.53240  -10.53583
      H1   -18.32110   -3.69830   -9.65573
       H   -15.04564   -1.17938   -8.78203
       O   -14.90887   -2.02075   -9.28647
      H1   -14.77277   -1.71175  -10.18807
       H   -15.10094    1.18128  -11.31863
       O   -15.24937    1.86949  -10.63632
      H1   -16.09830    2.37114  -10.69109
       H   -16.72727   -4.76077   -9.12088
       O   -16.89820   -4.09304   -8.43791
      H1   -16.21774   -3.42147   -8.63335
       H   -13.14916   -2.35277  -12.87520
       O   -12.33389   -2.01395  -13.31116
      H1   -12.58285   -1.28367  -13.88864
       H   -17.38851   -7.08218   -8.80270
       O   -17.48455   -7.67861   -8.01492
      H1   -18.32228   -7.40787   -7.60689
       H   -20.08667   -1.35672  -12.49823
       O   -19.78913   -1.68487  -13.32469
      H1   -18.88025   -1.84833  -13.11562
       H   -15.39625   -7.35390  -15.14077
       O   -15.87895   -7.73151  -14.38856
      H1   -16.68054   -8.10994  -14.81871
       H   -11.57089   -3.61097  -13.11244
       O   -11.07592   -4.40273  -12.80585
      H1   -11.46832   -5.12960  -13.33094
       H   -14.37745   -5.47813  -16.09962
       O   -14.26635   -6.40953  -16.16932
      H1   -13.32680   -6.55343  -15.99844
       H   -16.56401   -3.25842  -15.70548
       O   -16.47563   -2.83347  -16.53338
      H1   -16.34454   -3.52141  -17.19453
       H   -17.39962   -6.36059  -10.75052
       O   -16.65907   -6.36979  -10.16445
      H1   -15.83520   -6.23729  -10.65939
       H   -14.65602   -3.22884  -16.18941
       O   -13.89723   -3.65816  -15.70057
      H1   -13.52506   -3.12282  -14.95589
       H   -13.63704   -6.31276  -12.13280
       O   -14.25481   -5.91389  -11.50839
      H1   -13.74883   -5.49853  -10.83032

