66
frame 5 | Written by MDAnalysis XYZWriter (release 2.4.3)
       H     8.93151   14.18784  -12.09080
       O     8.28647   14.68945  -12.63234
      H1     7.95087   14.01648  -13.18332
       H     7.91586   13.24465   -8.43115
       O     8.58496   13.45756   -7.78687
      H1     8.56566   12.66922   -7.16285
       H     8.66829   10.50265   -6.38943
       O     8.38719   11.34531   -5.98532
      H1     7.45442   11.21177   -5.84214
       H    12.73982   15.45783   -9.20685
       O    13.03316   15.91904  -10.00321
      H1    12.73767   15.23423  -10.58130
       H     9.54921   10.56734   -3.11148
       O     8.61807   10.51649   -3.46578
      H1     8.66878   11.06153   -4.24044
       H    11.25105   12.49792  -11.46305
       O    10.58467   12.94142  -12.01671
      H1    10.38432   12.20062  -12.63832
       H    11.74426   10.54729  -10.43300
       O    12.34012   11.32810  -10.46479
      H1    12.27920   11.68823   -9.52825
       H     8.65531   15.28813   -9.02134
       O     8.21990   16.00605   -9.50263
      H1     8.92744   16.65539   -9.68538
       H     5.20172   16.17671  -10.06688
       O     5.86494   15.93022  -10.80166
      H1     6.70056   15.93676  -10.27445
       H     3.94425   16.73409   -8.16191
       O     3.96500   15.98503   -8.75492
      H1     4.41154   15.22968   -8.27113
       H     9.64338    8.66808   -8.36760
       O    10.09753    9.03217   -9.16312
      H1    10.38470    8.16981   -9.58804
       H     6.95182   18.76596   -7.54157
       O     7.31114   17.89927   -7.38444
      H1     7.45356   17.46152   -8.24282
       H    12.72027   12.08004   -7.45278
       O    11.95621   12.01784   -8.05115
      H1    11.58340   12.90062   -8.01792
       H    10.15124   14.32502   -7.59841
       O    11.02916   14.67517   -7.64209
      H1    11.36537   15.09373   -6.80417
       H     5.36104   14.11622  -11.24897
       O     4.85253   13.29622  -11.54945
      H1     3.94793   13.45436  -11.19085
       H     5.85812   14.10258   -4.12630
       O     6.68247   14.40429   -4.58095
      H1     6.83640   15.31189   -4.23637
       H     9.66287   15.14421   -3.53086
       O     9.88717   14.72070   -2.72058
      H1     9.16236   14.16268   -2.39407
       H     5.55199    9.69910   -7.77658
       O     5.67471   10.62101   -7.57756
      H1     4.77844   10.77923   -7.23754
       H     7.41708   11.07116  -11.58318
       O     6.59053   10.66515  -11.90866
      H1     6.00716   11.44371  -12.08409
       H     9.18721   15.91166   -5.67181
       O     9.81330   16.14988   -4.98762
      H1     9.68900   17.09591   -4.84753
       H     5.76888   14.15752   -6.67370
       O     5.04816   13.82662   -7.26493
      H1     5.61519   13.37449   -7.96580
       H     5.71382   12.90951  -10.07702
       O     6.34075   12.64416   -9.33596
      H1     5.99934   11.77855   -9.03370

