66
frame 5 | Written by MDAnalysis XYZWriter (release 2.4.3)
       H     6.58253    3.28688    4.92959
       O     7.28173    2.67863    4.60366
      H1     7.62890    2.21401    5.38593
       H    13.75571    4.39044    1.94718
       O    14.20512    4.81242    1.16342
      H1    15.13711    4.91764    1.40764
       H    14.74530    3.03246    5.38410
       O    14.82837    2.40869    4.60616
      H1    14.18021    2.72779    3.96977
       H     6.13594    5.01849    5.22546
       O     5.55864    4.38265    5.69238
      H1     5.82359    4.67233    6.58177
       H    12.71424    5.03729    3.74901
       O    12.65655    4.06768    3.62066
      H1    11.77957    3.77523    3.90934
       H     9.76098    6.80326    4.99093
       O     9.28601    5.99029    5.15647
      H1     9.95708    5.23128    5.04811
       H    12.16955    7.47125    6.73905
       O    12.53982    8.21027    6.25265
      H1    11.75276    8.76617    6.04985
       H    10.53829    5.03638    1.10627
       O    10.49813    4.14502    0.84521
      H1    10.52662    4.25066   -0.13856
       H     7.28323    6.27644    4.10419
       O     6.71783    5.67241    3.64451
      H1     7.16490    5.40280    2.83214
       H     8.97265    7.05149    7.05568
       O     8.35895    7.43209    7.69738
      H1     8.45373    8.37726    7.60451
       H     9.72313    9.58981    5.48731
       O     9.89050    8.83006    4.92445
      H1     9.83366    9.18667    3.99883
       H     6.86911    6.21622    7.73825
       O     6.30065    5.47675    8.06518
      H1     5.49153    5.85948    8.44946
       H    12.42263    1.45644    1.13993
       O    11.76692    1.89659    1.66502
      H1    11.51059    2.73177    1.25802
       H    13.49379    6.82883    3.08283
       O    13.43419    6.58535    4.00682
      H1    12.91127    7.28789    4.43406
       H    11.72359    6.79045    9.07960
       O    11.58520    6.36649    8.21619
      H1    11.39417    5.41526    8.32082
       H    10.47937    3.50316    6.77605
       O    10.83316    3.50682    7.66317
      H1    10.12689    3.13922    8.16080
       H     9.51026    6.88456    1.88752
       O    10.45741    6.78776    2.06325
      H1    11.11076    7.29698    1.61610
       H    10.49240    0.33070    4.29966
       O    10.99670    1.19724    4.14747
      H1    10.99957    1.25103    3.16111
       H    12.16941    2.54450    8.50824
       O    12.87202    2.01234    8.96366
      H1    12.53741    1.58903    9.76018
       H    13.23001    6.07396    8.27230
       O    14.21217    6.03289    8.20104
      H1    14.55311    6.10527    9.08301
       H     7.08218    4.22756    0.37642
       O     7.73636    4.73247    0.86669
      H1     8.56112    4.18943    0.89608
       H    10.47034    2.70425    4.50609
       O    10.01390    3.49666    4.84508
      H1     9.13255    3.36386    4.56155

