66
frame 5 | Written by MDAnalysis XYZWriter (release 2.4.3)
       H   -12.69387   14.10172  -10.60878
       O   -13.25759   13.53707  -10.09070
      H1   -13.76600   13.02507  -10.74392
       H   -14.50024   12.31826  -12.72364
       O   -14.85555   12.09355  -11.88425
      H1   -15.42004   12.81431  -11.66958
       H   -15.38039   13.97376  -14.02217
       O   -16.33104   13.84129  -13.81083
      H1   -16.65674   14.71931  -13.92151
       H   -17.79435   17.36994  -13.79266
       O   -17.45399   16.60103  -14.29134
      H1   -17.61539   16.87389  -15.21686
       H   -16.25966   17.73125  -18.78372
       O   -16.03327   17.24270  -17.96931
      H1   -16.15489   16.29931  -18.21467
       H   -11.44976   15.38415  -14.45864
       O   -11.01674   14.51614  -14.16864
      H1   -10.30798   14.60759  -14.79275
       H   -14.72484   20.20596  -16.41366
       O   -14.06138   19.61014  -16.04290
      H1   -14.50864   18.88678  -15.61685
       H   -19.16742   18.89895  -12.10448
       O   -18.91701   18.55054  -12.94326
      H1   -19.74071   18.54771  -13.40685
       H   -17.48620   12.08358  -13.39739
       O   -17.80025   11.24488  -13.71410
      H1   -17.77539   10.66914  -12.93799
       H   -12.68114   13.41228  -14.17372
       O   -13.55365   12.95569  -14.25244
      H1   -13.69662   12.76793  -15.20587
       H   -18.48359   13.24813  -10.77542
       O   -17.52887   13.22273  -10.84651
      H1   -17.24675   13.73531  -10.10439
       H   -14.68474   16.38450  -12.68532
       O   -14.89498   15.81753  -11.88575
      H1   -15.62214   15.21078  -12.12279
       H   -14.70655   19.24845  -11.63363
       O   -15.53102   18.89282  -12.04851
      H1   -15.99963   19.76223  -12.15368
       H   -18.90334   12.44203  -16.62947
       O   -18.54832   12.61321  -17.53144
      H1   -18.00165   11.90176  -17.81488
       H   -16.44270   18.79604  -10.37098
       O   -16.72765   18.65103   -9.46966
      H1   -16.84192   19.50270   -9.00276
       H   -18.95885   17.30039  -17.17297
       O   -18.36163   17.77376  -16.53617
      H1   -17.51787   17.62087  -17.00882
       H   -17.91043   17.31953   -8.77380
       O   -18.70310   16.74819   -8.64335
      H1   -18.47835   16.41831   -7.75507
       H   -15.68182   17.36151   -8.97328
       O   -14.88472   16.81967   -9.01857
      H1   -14.70123   16.75438   -9.97676
       H   -11.39384   16.96629  -15.44275
       O   -11.90789   17.23325  -14.68046
      H1   -12.82881   17.19912  -14.94670
       H   -13.47013   13.41770  -17.87388
       O   -14.07807   13.19144  -17.15596
      H1   -14.99272   13.38498  -17.50287
       H   -15.67049   17.14417  -14.25809
       O   -14.75333   17.45301  -14.18689
      H1   -14.89039   18.18514  -13.57910
       H   -16.24213   14.19257  -19.05580
       O   -16.43774   14.26126  -18.07253
      H1   -17.12299   13.63206  -17.90952

