66
frame 6 | Written by MDAnalysis XYZWriter (release 2.4.3)
       H   -16.03205   -6.31646   10.17690
       O   -16.66696   -6.76751    9.59317
      H1   -17.35489   -6.11072    9.44010
       H   -14.31149  -12.07863   10.11129
       O   -14.13444  -12.53047    9.33502
      H1   -14.48881  -11.98846    8.61331
       H   -18.04428   -9.92236   11.50055
       O   -17.84408  -10.85267   11.42797
      H1   -18.33722  -11.32259   12.12830
       H   -16.84513   -4.59564   13.66540
       O   -16.01418   -4.06392   13.61411
      H1   -15.88141   -3.60982   14.44235
       H   -13.46737   -8.10664    8.62626
       O   -14.01490   -8.67570    9.17210
      H1   -14.84212   -8.24797    9.27349
       H   -18.13157   -7.80643   10.44114
       O   -18.64684   -8.02478   11.20894
      H1   -19.57884   -7.86764   11.05872
       H   -18.56717  -10.29336   14.81908
       O   -17.97424  -10.11668   15.60103
      H1   -17.11861   -9.81951   15.19332
       H   -16.96800   -9.16675    8.33496
       O   -17.01830   -9.35461    7.38892
      H1   -17.88164   -9.58070    7.13201
       H   -13.56443   -4.98397   10.55962
       O   -14.47590   -4.88278   10.17644
      H1   -14.40131   -4.81400    9.21157
       H   -17.50570   -6.47896   14.42303
       O   -17.95279   -6.27177   13.55197
      H1   -17.74283   -7.01723   12.93870
       H   -15.35471  -12.48848   12.53143
       O   -15.25570  -11.71464   12.01153
      H1   -16.06794  -11.51324   11.49556
       H   -18.04590  -13.46979    6.58033
       O   -17.60753  -12.56594    6.43361
      H1   -17.59036  -12.22580    7.29678
       H   -13.27985   -8.46514   12.38367
       O   -13.82073   -7.90883   12.89996
      H1   -13.21181   -7.17625   13.09680
       H   -13.29852  -10.38155   11.71735
       O   -12.67924   -9.89140   11.12471
      H1   -13.08764   -9.63110   10.27639
       H   -17.40715  -13.22724    9.28753
       O   -17.98630  -12.48765    9.11647
      H1   -17.98658  -11.90234    9.87803
       H   -19.32012   -4.59179    9.85364
       O   -18.66470   -4.59946    9.10212
      H1   -18.20401   -3.73179    9.21354
       H   -15.44077  -10.46241    7.11950
       O   -14.82409  -11.21594    7.06284
      H1   -13.99548  -10.82560    6.68633
       H   -15.96881   -6.33749    5.20122
       O   -16.74866   -6.59419    4.66484
      H1   -16.43777   -6.75706    3.75294
       H   -14.10404   -6.05232    6.72869
       O   -14.77863   -5.57648    6.11102
      H1   -14.82272   -4.76925    6.61828
       H   -18.55853   -6.75632    5.74419
       O   -19.46935   -6.55559    5.58651
      H1   -19.57290   -6.38039    4.64237
       H   -13.82324   -5.47844   14.78120
       O   -13.56820   -5.18828   13.85951
      H1   -14.41757   -4.98413   13.40297
       H   -15.54870  -10.22931   13.46699
       O   -15.27975   -9.79065   14.27320
      H1   -14.93604   -9.00490   13.83305

