66
frame 5 | Written by MDAnalysis XYZWriter (release 2.4.3)
       H    12.75389   20.12862   12.37720
       O    13.11626   19.60859   13.11886
      H1    12.98371   18.70929   12.83847
       H    11.19062   19.38644   15.58330
       O    11.16063   18.52930   15.12792
      H1    12.09827   18.24953   15.09609
       H    17.24924   18.63853   12.93538
       O    17.94314   18.07292   13.27543
      H1    18.82693   18.39754   13.07887
       H    18.58020   11.45335   11.16329
       O    19.13904   11.56779   12.01684
      H1    19.38396   10.71122   12.30404
       H    19.55108   17.29407   17.54380
       O    19.55041   17.46811   16.59916
      H1    18.87333   16.84981   16.30029
       H    14.61058   17.23823    9.31865
       O    14.79073   17.10678   10.25685
      H1    15.53762   16.47549   10.22600
       H    17.56382   18.61042   18.73861
       O    17.19569   17.73430   18.52861
      H1    16.94029   17.82202   17.62873
       H    16.50966   14.34494    9.35112
       O    17.00206   15.17299    9.51695
      H1    17.23539   15.09929   10.40080
       H    14.31498   14.42541   17.30262
       O    15.26239   14.86262   17.25013
      H1    15.17026   15.56686   17.88248
       H    14.06288   18.37399    6.70038
       O    14.60485   17.76150    7.17792
      H1    15.60782   17.89805    6.98762
       H    17.03413   17.75995   14.84354
       O    16.46142   17.75830   15.59757
      H1    15.54596   17.45881   15.33178
       H    19.29807   14.71475   13.39719
       O    18.54113   14.05569   13.60087
      H1    18.65672   13.28777   13.07113
       H    12.69296   19.32085    9.59991
       O    13.54792   19.58231   10.00600
      H1    13.96788   18.77301   10.39528
       H    16.86425   19.26620    7.92008
       O    17.13029   18.75075    7.09836
      H1    17.71567   19.34789    6.55042
       H    18.19314   14.57066   15.27017
       O    18.01049   15.07742   16.12424
      H1    17.14106   14.77366   16.44038
       H    15.21882   15.09874   13.14329
       O    14.42358   14.94634   13.66984
      H1    14.02160   14.09439   13.38083
       H    18.87797   13.74876   16.92715
       O    19.12833   12.90579   17.35831
      H1    19.25834   13.13275   18.27476
       H    18.41952   16.25161    8.82568
       O    18.97288   16.76769    8.17504
      H1    18.37982   17.43872    7.89644
       H    13.06619   16.40169   12.71453
       O    12.84861   17.08949   12.09517
      H1    13.62757   17.15194   11.52142
       H    14.09250   16.21269   14.88979
       O    13.89723   17.09172   15.27488
      H1    13.90732   16.92167   16.24068
       H    16.76517   13.14893   14.30630
       O    15.93394   12.91724   14.72997
      H1    15.46360   13.70951   14.95813
       H    16.97635   16.54726   12.28564
       O    16.85158   15.64004   12.24621
      H1    17.61019   15.24010   12.69737

