66
frame 0 | Written by MDAnalysis XYZWriter (release 2.4.3)
       H   -16.88713  -16.41341   17.15747
       O   -16.05264  -16.44954   16.67036
      H1   -15.95556  -17.37383   16.36904
       H   -10.49317  -15.75235   12.43743
       O   -11.30787  -15.36414   12.81452
      H1   -11.73240  -14.84968   12.10141
       H   -15.58845  -14.41640   19.34221
       O   -16.34856  -14.02402   18.88837
      H1   -16.06585  -13.69048   18.00135
       H   -11.84301  -14.07578   16.67757
       O   -11.25358  -13.72363   17.38093
      H1   -11.52638  -12.80841   17.67661
       H   -15.10884  -12.32848   16.35889
       O   -15.73549  -13.01344   16.54552
      H1   -15.53074  -13.62192   15.79296
       H   -12.02983  -18.22849   20.21672
       O   -12.55322  -18.48336   19.40349
      H1   -12.39543  -17.72434   18.85076
       H   -14.48472  -19.65423   17.64166
       O   -14.14376  -19.53162   16.74168
      H1   -13.61616  -18.73999   16.76615
       H   -13.61827  -11.66476   14.94317
       O   -13.29832  -12.30967   14.35236
      H1   -12.31676  -12.14795   14.30311
       H   -12.47011  -17.40092   12.77263
       O   -12.42412  -17.83631   13.66884
      H1   -11.61829  -17.44726   14.06156
       H   -17.67346  -12.99055   16.20906
       O   -18.56532  -13.16323   16.56500
      H1   -19.11694  -12.38953   16.34644
       H   -20.05178  -15.18297   13.51849
       O   -19.32081  -14.53179   13.62964
      H1   -19.39715  -14.34904   14.53031
       H   -15.43815  -15.91316   11.52766
       O   -15.47978  -14.93792   11.69382
      H1   -15.92239  -14.89089   12.61617
       H   -15.83009  -18.66186   19.49519
       O   -15.06955  -19.28905   19.37471
      H1   -14.29493  -18.69863   19.32601
       H   -13.14472  -14.08904   14.95154
       O   -12.62645  -14.79503   15.25623
      H1   -12.04394  -15.00584   14.50504
       H   -19.41149  -18.56269   15.04208
       O   -18.76821  -18.74596   14.31435
      H1   -17.91334  -18.83282   14.76300
       H   -12.69643  -14.58372   10.32772
       O   -12.89600  -14.07376   11.08187
      H1   -13.75394  -14.36605   11.43534
       H   -14.32284  -16.37968   17.28381
       O   -13.44388  -16.73641   17.25811
      H1   -13.16243  -16.34782   16.41100
       H   -15.54078  -19.23611   15.80373
       O   -16.15935  -18.80701   15.17570
      H1   -15.77234  -19.10331   14.31776
       H   -17.69835  -15.07146   18.57146
       O   -18.30920  -15.84620   18.30680
      H1   -19.12313  -15.56511   18.74085
       H   -12.44117  -18.63814   10.48974
       O   -12.96898  -17.91169   10.88885
      H1   -13.84350  -18.32459   10.76885
       H   -16.84424  -17.38076   10.74766
       O   -15.96032  -17.79141   10.95454
      H1   -16.11277  -18.76485   11.12999
       H   -17.58883  -14.77063   13.81187
       O   -16.78615  -14.65135   14.28830
      H1   -16.66021  -15.42824   14.88105

