66
frame 6 | Written by MDAnalysis XYZWriter (release 2.4.3)
       H    -3.91952    2.34334   -2.06196
       O    -3.75916    1.68380   -2.77159
      H1    -4.50955    1.76545   -3.33525
       H    -1.98572    4.06098    0.33345
       O    -1.33322    3.82851   -0.36980
      H1    -1.40901    2.86245   -0.28637
       H    -7.01507    2.64048   -4.42631
       O    -6.49677    2.59727   -3.59774
      H1    -6.98143    1.83985   -3.13144
       H    -2.72857    7.64498   -0.28372
       O    -3.38877    7.02991    0.04399
      H1    -3.63209    6.54129   -0.72373
       H    -6.56304    4.92476    1.07884
       O    -6.82433    4.47631    0.29087
      H1    -7.61578    3.92379    0.42123
       H    -4.70877    5.64229   -3.43111
       O    -5.01547    5.72365   -2.50256
      H1    -5.70469    5.12200   -2.39755
       H    -3.25651    5.83638    1.30463
       O    -3.31456    4.94087    1.68642
      H1    -2.63764    4.90024    2.41765
       H    -2.82481    1.98396    4.38058
       O    -3.80160    1.91901    4.29817
      H1    -3.83460    1.24076    3.57998
       H    -4.36172    1.35479    1.34444
       O    -3.79956    0.66165    1.74714
      H1    -4.13739   -0.21137    1.31447
       H    -7.89461    2.91209    3.89312
       O    -7.56571    3.10490    2.98231
      H1    -6.88553    3.72582    3.17687
       H    -7.60298   -0.02061   -3.23513
       O    -7.66827    0.56899   -2.46756
      H1    -7.36176    0.12185   -1.73698
       H    -6.92564    0.49629    3.76984
       O    -7.11028    0.26079    2.86703
      H1    -7.16355    1.13976    2.40426
       H    -7.58271    4.75010   -1.62700
       O    -8.27102    4.61382   -2.29297
      H1    -7.86917    4.07124   -3.03573
       H    -1.27561    0.35496    0.33276
       O    -1.73403    1.05484   -0.15161
      H1    -2.61077    1.16326    0.18883
       H    -5.45180    3.51547    0.15631
       O    -4.68111    2.94630    0.22765
      H1    -4.01582    3.52664    0.62889
       H    -4.70642    4.94661    4.28530
       O    -4.16738    4.77883    5.06575
      H1    -4.21862    3.83235    5.10111
       H    -7.21116    8.12290   -1.46859
       O    -6.26853    8.42436   -1.71581
      H1    -5.77569    7.62085   -1.92481
       H    -4.85177    5.52316    2.27674
       O    -5.72443    5.41559    2.68515
      H1    -5.93611    6.39808    2.87380
       H    -8.75522    6.16824   -1.90756
       O    -8.64856    7.12219   -1.60851
      H1    -9.47994    7.24039   -1.23148
       H    -4.37823   -1.23366   -2.32589
       O    -3.70479   -0.92963   -1.66738
      H1    -3.74446   -0.01389   -1.86048
       H   -10.08327    3.21356   -0.26572
       O    -9.39884    2.64722   -0.49816
      H1    -9.03000    3.08570   -1.28220
       H    -9.11988   -0.81921   -0.00200
       O    -9.77533   -0.10472   -0.16852
      H1    -9.26412    0.72789   -0.22313

