66
frame 5 | Written by MDAnalysis XYZWriter (release 2.4.3)
       H    16.32529    9.53190   -6.63553
       O    15.85490   10.24099   -7.11138
      H1    15.20391   10.58757   -6.49094
       H    18.72771    5.88417   -9.87135
       O    19.03854    6.75399   -9.67669
      H1    18.96123    7.20955  -10.58894
       H    18.78098   17.24663   -8.13222
       O    17.85314   17.35053   -7.85698
      H1    17.79337   16.81749   -7.06771
       H    17.80283   15.93550  -13.17124
       O    17.04138   16.21876  -12.69655
      H1    17.05723   15.63838  -11.93331
       H    14.00003   11.53301  -11.63948
       O    14.70712   12.00512  -12.14846
      H1    14.39433   12.95268  -12.14381
       H    16.67227   11.64065  -11.98641
       O    17.55731   11.33095  -12.23005
      H1    18.14926   11.95063  -11.76457
       H    15.07286   10.04108   -8.66326
       O    14.98889    9.79834   -9.59650
      H1    14.13086   10.17154   -9.89677
       H    15.11593   13.74576   -9.19344
       O    15.03357   13.62225   -8.27734
      H1    15.91901   13.38249   -7.95001
       H    16.88899   16.35818  -14.91469
       O    16.79010   16.87061  -15.76414
      H1    15.85742   16.68246  -15.91269
       H    19.19182   11.32061   -8.15023
       O    19.73409   10.50182   -8.27890
      H1    19.20349   10.14948   -9.01924
       H    18.05080   12.76548  -15.55350
       O    18.95560   12.75034  -15.19004
      H1    19.06387   12.09501  -14.48159
       H    16.43987   18.10898  -12.07417
       O    16.26665   18.94653  -11.63068
      H1    15.43575   18.80706  -11.20315
       H    17.98611   12.79879   -6.42469
       O    17.54520   12.45400   -7.16312
      H1    17.08328   11.65177   -6.93243
       H    14.57168   10.86625  -15.11743
       O    14.36642   11.84145  -14.85845
      H1    14.53831   11.90471  -13.93937
       H    18.60994   12.84996   -9.90374
       O    18.93535   13.02558  -10.79226
      H1    19.13883   14.00612  -10.83401
       H    15.48973    8.03876  -11.51496
       O    15.40818    7.88472  -12.45607
      H1    16.13597    8.37058  -12.89511
       H    15.13029   15.80149  -10.17998
       O    16.06077   15.43143  -10.25819
      H1    16.30684   15.63157   -9.35278
       H    19.70365   16.26171  -11.69956
       O    19.65773   15.65879  -10.95276
      H1    19.91792   16.11117  -10.14035
       H    17.12103    9.42556  -10.13551
       O    18.01547    9.68921  -10.33319
      H1    17.87352   10.38473  -10.94983
       H    14.44272   13.94728   -5.29399
       O    14.88549   14.65240   -5.78076
      H1    15.03494   14.29566   -6.68422
       H    19.96337   15.80756  -14.23393
       O    19.10754   15.45188  -14.28361
      H1    19.18216   14.57153  -14.71107
       H    17.53231   10.17782  -13.31836
       O    17.37009    9.47222  -14.00998
      H1    16.89933    9.91211  -14.69670

