66
frame 5 | Written by MDAnalysis XYZWriter (release 2.4.3)
       H    14.71345    2.86840    7.78981
       O    15.20662    3.57373    7.33679
      H1    14.78026    4.39920    7.58417
       H    13.13614    8.94273    1.75348
       O    12.93732    8.32525    1.06240
      H1    13.49840    8.39329    0.29943
       H    12.46461   11.35855    9.07881
       O    11.62934   11.40844    9.60595
      H1    11.67061   12.30597    9.99359
       H    12.71424    5.03729    3.74901
       O    12.65655    4.06768    3.62066
      H1    11.77957    3.77523    3.90934
       H     9.76098    6.80326    4.99093
       O     9.28601    5.99029    5.15647
      H1     9.95708    5.23128    5.04811
       H    15.09401    9.65843   10.04488
       O    15.48750    9.31304   10.84298
      H1    15.33550    8.39388   10.78774
       H    12.16955    7.47125    6.73905
       O    12.53982    8.21027    6.25265
      H1    11.75276    8.76617    6.04985
       H    16.94097    8.98479    4.34926
       O    16.45834    8.89578    5.19396
      H1    16.34642    7.97558    5.42414
       H    15.33395    6.61589    6.70534
       O    15.76459    6.54517    5.87348
      H1    15.06981    6.63211    5.23071
       H     8.97265    7.05149    7.05568
       O     8.35895    7.43209    7.69738
      H1     8.45373    8.37726    7.60451
       H     9.72313    9.58981    5.48731
       O     9.89050    8.83006    4.92445
      H1     9.83366    9.18667    3.99883
       H    13.49379    6.82883    3.08283
       O    13.43419    6.58535    4.00682
      H1    12.91127    7.28789    4.43406
       H    14.02403   13.45117    5.70142
       O    13.26235   12.85772    5.83865
      H1    13.48732   11.97502    5.64216
       H    11.98630    7.06736   10.98342
       O    11.69769    7.80976   10.44699
      H1    10.79638    7.91657   10.71706
       H    15.00322   11.38663    8.47355
       O    14.59662   10.48384    8.60848
      H1    14.67946   10.10722    7.75206
       H    13.58367    9.65919    5.81145
       O    14.17627   10.32402    5.45055
      H1    15.01060    9.79737    5.33226
       H    11.72359    6.79045    9.07960
       O    11.58520    6.36649    8.21619
      H1    11.39417    5.41526    8.32082
       H    10.72858   11.06006    8.01569
       O    10.46274   11.05135    7.05522
      H1    10.35275   11.96575    6.76820
       H     8.74833   10.80401    7.81302
       O     7.94901   10.29276    8.06511
      H1     7.90863   10.42198    9.02499
       H     9.51026    6.88456    1.88752
       O    10.45741    6.78776    2.06325
      H1    11.11076    7.29698    1.61610
       H    13.23001    6.07396    8.27230
       O    14.21217    6.03289    8.20104
      H1    14.55311    6.10527    9.08301
       H    13.07507   10.14895    4.00562
       O    12.35222   10.19112    3.40927
      H1    11.61413    9.84944    3.88759

