66
frame 5 | Written by MDAnalysis XYZWriter (release 2.4.3)
       H   -17.38038   11.60585   -9.86283
       O   -17.01373   10.94073   -9.27734
      H1   -17.59121   10.96676   -8.47181
       H   -16.82009   12.34902   -4.49472
       O   -17.66244   11.85953   -4.28169
      H1   -17.54623   10.88651   -4.19003
       H   -17.32396    4.03076   -9.83478
       O   -17.38146    3.23516  -10.32731
      H1   -17.81285    2.69387   -9.66761
       H   -13.93605    9.02962   -9.15122
       O   -13.34986    8.87200   -9.88392
      H1   -12.68535    9.62006   -9.89368
       H   -17.48620   12.08358  -13.39739
       O   -17.80025   11.24488  -13.71410
      H1   -17.77539   10.66914  -12.93799
       H   -16.94787    6.32722  -12.78649
       O   -16.24900    6.18662  -12.13461
      H1   -15.47366    6.72274  -12.29327
       H   -17.01110    8.51270   -4.23552
       O   -16.84856    9.12036   -3.48550
      H1   -17.60280    8.88871   -2.88622
       H   -14.90756    6.81871   -7.43924
       O   -15.71356    7.41094   -7.42184
      H1   -16.24723    6.90268   -8.08538
       H   -14.22341   10.34182   -2.39200
       O   -14.26001    9.45652   -2.71357
      H1   -15.21288    9.38230   -3.05051
       H   -18.48359   13.24813  -10.77542
       O   -17.52887   13.22273  -10.84651
      H1   -17.24675   13.73531  -10.10439
       H   -18.32975    7.36308   -5.75525
       O   -17.47775    7.19865   -5.28394
      H1   -16.82304    7.25004   -5.97332
       H   -19.76211    5.38679   -2.25120
       O   -18.82096    5.19274   -2.01114
      H1   -18.43753    4.80733   -2.76203
       H   -17.36090   13.51306   -1.61161
       O   -17.01408   12.60717   -1.77905
      H1   -17.42990   12.31480   -2.66324
       H   -16.87070    6.27223  -10.30374
       O   -17.15804    6.12588   -9.37776
      H1   -18.08723    6.17311   -9.35251
       H   -14.79703   11.43412   -6.39409
       O   -15.08438   12.05659   -5.66966
      H1   -14.28162   12.41141   -5.27079
       H   -17.20009    5.46865   -4.56457
       O   -17.14903    4.58810   -4.18958
      H1   -17.80324    3.99214   -4.59735
       H   -17.08571    9.72139  -11.04187
       O   -17.85393    9.52944  -11.60553
      H1   -18.65456    9.65074  -10.99153
       H   -19.59124    8.75510   -7.46487
       O   -19.34511    7.83066   -7.29559
      H1   -19.60747    7.46977   -8.13952
       H   -19.53670    8.67333   -1.01757
       O   -19.22400    8.40505   -1.88797
      H1   -19.70232    7.56354   -2.09720
       H   -19.01942    7.15569  -13.43846
       O   -18.18467    7.57853  -13.61333
      H1   -18.02866    8.22762  -12.90842
       H   -15.03505    9.30343   -7.50830
       O   -14.78554   10.25914   -7.55258
      H1   -15.50030   10.66138   -8.02855
       H   -15.12076   14.95263   -7.86575
       O   -15.81925   14.55272   -7.43082
      H1   -15.43120   13.86365   -6.86050

