66
frame 5 | Written by MDAnalysis XYZWriter (release 2.4.3)
       H   -11.40687    7.04751   -5.20397
       O   -10.38917    6.88595   -5.33872
      H1    -9.83587    6.91913   -4.50896
       H   -11.73925    3.85116   -5.69181
       O   -11.01330    4.29629   -6.13189
      H1   -10.91789    5.17263   -5.72200
       H   -12.85569    3.59415   -0.93090
       O   -12.58334    4.10938   -1.69502
      H1   -12.99538    4.96511   -1.52790
       H   -11.97245    9.03404   -0.48439
       O   -11.10754    9.12297   -0.88569
      H1   -10.66029    8.24971   -0.67660
       H   -12.93861    7.47324   -1.97588
       O   -12.54806    6.65551   -2.42170
      H1   -11.61322    6.71467   -2.08505
       H   -11.88129   10.20452   -5.61251
       O   -12.36237    9.64619   -6.19685
      H1   -12.97810   10.27503   -6.62637
       H   -15.48389    3.30462   -3.07512
       O   -14.63771    2.92759   -3.10137
      H1   -14.07630    3.52238   -2.57121
       H   -17.01110    8.51270   -4.23552
       O   -16.84856    9.12036   -3.48550
      H1   -17.60280    8.88871   -2.88622
       H   -14.90756    6.81871   -7.43924
       O   -15.71356    7.41094   -7.42184
      H1   -16.24723    6.90268   -8.08538
       H   -13.03870    6.52310   -6.57417
       O   -13.30677    6.22877   -7.46203
      H1   -12.62249    6.75975   -7.93936
       H   -14.22341   10.34182   -2.39200
       O   -14.26001    9.45652   -2.71357
      H1   -15.21288    9.38230   -3.05051
       H   -15.47868    3.82475   -5.76332
       O   -14.89442    3.70562   -6.52948
      H1   -14.35308    4.46023   -6.69477
       H   -18.32975    7.36308   -5.75525
       O   -17.47775    7.19865   -5.28394
      H1   -16.82304    7.25004   -5.97332
       H   -14.51101    8.49157    0.22638
       O   -13.80350    8.85388   -0.23331
      H1   -14.11365    8.97115   -1.15917
       H   -11.52249    8.66229   -7.25209
       O   -10.90287    8.04711   -7.69824
      H1   -10.37878    7.55104   -7.00215
       H   -12.70528    2.46108   -4.47372
       O   -11.88075    2.53842   -4.05765
      H1   -12.05625    3.29434   -3.41937
       H   -17.20009    5.46865   -4.56457
       O   -17.14903    4.58810   -4.18958
      H1   -17.80324    3.99214   -4.59735
       H    -9.79625   10.06335   -3.96459
       O   -10.69356   10.29213   -3.79777
      H1   -10.81787    9.90286   -2.88788
       H    -9.98135    5.76455   -0.30224
       O    -9.61572    6.61331   -0.53957
      H1    -8.98680    6.91184    0.14190
       H    -8.39467    6.03879   -3.03286
       O    -8.52648    7.05619   -3.14969
      H1    -8.94601    7.21734   -2.28351
       H   -13.17335    8.21701   -5.11022
       O   -13.15891    7.27487   -4.97367
      H1   -13.01190    7.14335   -3.98831
       H   -15.03505    9.30343   -7.50830
       O   -14.78554   10.25914   -7.55258
      H1   -15.50030   10.66138   -8.02855

