66
frame 5 | Written by MDAnalysis XYZWriter (release 2.4.3)
       H     1.21456   17.38110  -10.16670
       O     1.77974   16.71976  -10.54155
      H1     2.34505   16.47968   -9.73481
       H    -3.33906   16.99173  -12.86014
       O    -3.02455   17.79172  -13.27393
      H1    -3.10408   17.64788  -14.22218
       H     0.20503   16.35047  -13.42838
       O     0.45520   15.70611  -12.76790
      H1     0.48069   16.27403  -11.97894
       H    -0.99190   18.74054  -10.57541
       O    -0.99490   18.33981   -9.70166
      H1    -1.91757   18.46789   -9.37135
       H     0.45981   17.13585   -6.08121
       O     0.74049   17.19916   -5.15759
      H1     1.31118   17.98646   -5.03721
       H    -1.52123   13.39152  -13.11586
       O    -1.63643   14.11111  -12.43875
      H1    -0.95381   14.76711  -12.61232
       H     0.81962   13.97311   -7.33817
       O     0.37708   14.01811   -8.20881
      H1     1.01127   13.74334   -8.85028
       H     4.51141   17.47787  -13.15542
       O     3.76457   17.88700  -12.70711
      H1     3.22798   17.17906  -12.27053
       H     1.39395   17.64578  -15.19728
       O     0.43171   17.69974  -14.86710
      H1     0.40161   18.16713  -14.09234
       H     3.94425   16.73409   -8.16191
       O     3.96500   15.98503   -8.75492
      H1     4.41154   15.22968   -8.27113
       H    -5.56390   15.93226  -11.99328
       O    -6.28686   16.47415  -12.41471
      H1    -5.80615   16.80138  -13.20798
       H    -1.91937   11.96566  -10.21981
       O    -1.00720   12.27483  -10.45855
      H1    -1.11546   13.01963  -11.06549
       H    -6.76352   16.97998   -8.49134
       O    -7.06873   17.58381   -9.16006
      H1    -6.34379   18.25022   -9.12355
       H    -1.54036   18.63296  -12.87746
       O    -0.80165   19.04628  -12.32358
      H1    -0.36855   19.66169  -12.92870
       H     1.89915   12.84573  -11.19054
       O     2.21314   13.58858  -10.66441
      H1     1.86821   14.35406  -11.14692
       H     1.94081   18.54468   -7.67133
       O     2.90499   18.38434   -7.43963
      H1     3.24962   19.32336   -7.47952
       H    -3.02707   20.17020   -5.52510
       O    -2.77631   19.33991   -5.93707
      H1    -3.19280   18.64973   -5.41242
       H    -2.19180   14.11506   -6.96105
       O    -2.27558   14.03726   -7.89526
      H1    -1.37215   14.04301   -8.24622
       H    -3.06542   14.83851  -11.92821
       O    -3.91259   15.23479  -11.73513
      H1    -3.79473   15.43228  -10.76991
       H    -3.29602   15.47673   -8.39763
       O    -3.67740   16.08173   -9.03598
      H1    -3.71537   16.91761   -8.56371
       H    -4.08386   19.60404   -9.07714
       O    -3.68242   18.82664   -8.66429
      H1    -3.22159   19.18591   -7.89158
       H     0.30445   15.83950   -8.07122
       O     0.33922   16.81388   -7.94454
      H1    -0.30370   17.22989   -8.51196

