66
frame 6 | Written by MDAnalysis XYZWriter (release 2.4.3)
       H   -14.81776   12.92496    2.23778
       O   -15.51124   13.63410    2.33399
      H1   -15.12470   14.43818    1.95442
       H   -16.92150   12.99221    1.63565
       O   -17.67909   12.64350    1.16931
      H1   -17.49595   12.88980    0.20710
       H   -16.91429   12.95424   -4.31691
       O   -17.71500   12.86043   -3.78405
      H1   -17.86965   11.94185   -3.71188
       H   -18.52905   11.50374    5.06651
       O   -18.69096   11.53633    6.01001
      H1   -18.65759   12.43382    6.33423
       H   -19.73713    6.25260    0.67362
       O   -19.24094    5.89014    1.42797
      H1   -18.30695    5.95437    1.23913
       H   -14.41606    8.21530   -1.63784
       O   -13.69432    7.54707   -1.61046
      H1   -13.04536    7.71205   -0.92253
       H   -18.13068   14.70111    2.02892
       O   -18.69900   15.37792    2.41479
      H1   -19.08381   15.01876    3.20151
       H   -12.73963   12.91706    1.52266
       O   -13.00256   12.10274    2.02261
      H1   -13.45314   11.46301    1.45234
       H   -14.90774   12.76338   -1.83727
       O   -14.01255   12.36079   -1.71573
      H1   -13.51092   12.93097   -1.07995
       H   -18.19691    9.09607   -4.24003
       O   -17.96831    9.57092   -3.41262
      H1   -18.63874    9.35502   -2.75403
       H   -15.38320   10.78807   -1.73168
       O   -15.55960    9.83376   -1.89996
      H1   -16.27864    9.68417   -2.47784
       H   -18.54174    6.92558    3.10579
       O   -18.65724    7.72632    3.63973
      H1   -17.75413    7.92867    3.99160
       H   -14.22933    9.35633    1.42184
       O   -13.96205   10.01383    0.81358
      H1   -14.71317   10.03170    0.25002
       H   -17.61048   10.82949    2.91957
       O   -18.39268   10.93564    3.47157
      H1   -19.14525   10.53506    3.02081
       H   -16.80096   14.19103   -1.06303
       O   -16.65978   13.29191   -1.40189
      H1   -17.30671   13.27400   -2.19687
       H   -15.79608   13.42301    4.36715
       O   -15.53171   13.00575    5.19292
      H1   -15.25532   12.07565    5.02025
       H   -14.11156    7.32996    2.31255
       O   -14.85489    7.90983    2.32857
      H1   -15.45506    7.62589    1.59318
       H   -15.72396    7.67772    5.12862
       O   -16.31699    8.30718    4.63170
      H1   -15.84589    8.23315    3.80853
       H   -15.40384    9.72929    5.01803
       O   -14.71898   10.40615    5.08798
      H1   -14.05819   10.14052    4.43979
       H   -18.69767    8.30425   -0.46534
       O   -18.00623    8.06644   -1.08526
      H1   -18.33454    7.34732   -1.60277
       H   -17.19654    9.76334   -0.06007
       O   -16.80489   10.09270    0.71925
      H1   -17.35756   10.93676    0.84306
       H   -16.05411    5.65529    1.28162
       O   -16.66290    6.28409    0.88988
      H1   -16.62376    6.13737   -0.07197

