66
frame 6 | Written by MDAnalysis XYZWriter (release 2.4.3)
       H    13.29515    5.32416   15.58673
       O    12.55099    4.78150   15.36119
      H1    11.85367    5.29042   15.10565
       H    10.19808    6.78749   18.44302
       O    10.60246    6.14176   18.95471
      H1    10.63965    5.32832   18.45537
       H    17.27018    6.55516   10.91008
       O    16.40522    6.60317   10.52058
      H1    15.97653    5.88206   10.94690
       H    10.62519    8.59189   17.58669
       O     9.69493    8.28420   17.61261
      H1     9.27675    8.74466   18.33544
       H    11.42771    3.46857   16.97160
       O    10.48848    3.55165   17.26796
      H1    10.36401    2.77798   17.85465
       H    16.18557    2.86309   13.50506
       O    16.05980    3.35237   14.32784
      H1    15.26383    3.04934   14.76670
       H    12.43436    8.09199   14.63426
       O    11.88969    7.99749   13.87534
      H1    11.04480    8.20287   14.26264
       H    13.51011   10.21896   11.55476
       O    13.11915   10.28667   12.43713
      H1    12.22505    9.84332   12.31941
       H     9.59828    7.97519   15.92846
       O     9.33694    8.01669   14.96960
      H1     8.91732    7.19141   14.63565
       H    15.11862    6.90896   18.76065
       O    15.92246    7.13043   18.35507
      H1    15.52125    7.65282   17.65937
       H    14.17909   11.27859   15.53902
       O    13.61417   10.47664   15.58050
      H1    13.45608   10.30581   14.65594
       H    18.99043    8.79718   15.33112
       O    19.17488    9.38903   14.57638
      H1    19.97262    9.91685   14.74869
       H    14.45751    5.92212   12.37282
       O    14.60390    5.03053   12.06549
      H1    15.27403    4.53630   12.61669
       H    14.23522    1.85607   16.31695
       O    13.93550    2.47739   16.96480
      H1    13.40426    3.06221   16.44380
       H    17.99674    6.86328   16.36442
       O    18.78830    7.38776   16.33112
      H1    18.94660    7.55643   17.29062
       H    14.29493    8.50442   12.68481
       O    15.01648    7.84268   12.59869
      H1    15.39113    8.01300   11.72191
       H    11.54443    3.89800   11.10581
       O    11.61512    4.63496   11.69311
      H1    12.58136    4.65794   11.86363
       H    16.74536    4.95430   15.38344
       O    16.46659    5.62666   15.99879
      H1    16.06004    5.28738   16.76184
       H    16.12610   12.02610   14.83413
       O    15.57304   12.34255   15.54547
      H1    15.28123   13.20495   15.26400
       H    14.77319    7.20729   15.70232
       O    14.06753    7.78707   15.99499
      H1    14.12634    8.62978   15.62784
       H    17.41908   10.13447   18.21738
       O    17.74063    9.23977   18.50761
      H1    16.94567    8.79410   18.89650
       H    12.70495    9.58546   17.34297
       O    12.13649    9.29842   18.04773
      H1    12.63668    8.53384   18.35377

