66
frame 7 | Written by MDAnalysis XYZWriter (release 2.4.3)
       H    17.30791   15.82228    3.09466
       O    16.98016   15.63474    2.20353
      H1    17.54002   14.91009    1.76479
       H    16.47670   13.17914    4.29286
       O    17.05616   12.49455    3.81326
      H1    16.63268   11.64753    3.74571
       H    14.02648   16.72554    2.97119
       O    14.20572   15.83161    2.67014
      H1    15.12975   15.78002    2.50653
       H    13.59507    8.92743    2.55725
       O    13.33721    8.09194    2.08698
      H1    13.66471    8.05156    1.21558
       H    17.70909   12.86937    1.78166
       O    17.80952   13.33684    0.93966
      H1    16.97071   13.26487    0.46451
       H    18.62270   16.80951    1.29952
       O    19.22582   17.41743    0.88067
      H1    18.72565   18.09946    0.39919
       H    17.66440    9.67343    2.79121
       O    16.70668    9.58412    3.01980
      H1    16.70020    8.95681    3.79927
       H    19.40714   10.15234   -0.32663
       O    19.44086    9.25354    0.03338
      H1    18.72363    8.72254   -0.21758
       H    17.95944   11.76564    5.67903
       O    17.54491   11.41068    6.48493
      H1    18.21931   10.84484    6.85330
       H    15.28528    7.61603    5.62346
       O    16.09592    7.77861    5.14880
      H1    15.93093    7.34821    4.33320
       H    16.62293   17.49585    1.62840
       O    16.41711   18.38965    1.39774
      H1    15.43004   18.49983    1.50147
       H    17.55924   12.02846    9.54618
       O    17.18445   12.73448    9.01980
      H1    17.34872   12.39029    8.10853
       H    15.65552   15.18833    5.20651
       O    15.47004   14.25911    5.27829
      H1    15.96698   13.90229    6.08209
       H    19.96511   12.18903   -1.37162
       O    19.30360   11.63492   -0.97667
      H1    18.81742   12.31971   -0.41357
       H    15.63861   11.86915    8.84664
       O    14.99862   11.19645    8.78551
      H1    15.01106   11.03070    7.87483
       H    14.64198    9.62745    6.27275
       O    14.66903   10.57249    6.09489
      H1    15.63120   10.61514    6.04886
       H    19.01578   15.00542    5.36231
       O    18.29985   14.95127    4.67167
      H1    18.14632   14.01268    4.44020
       H    12.04104   12.45102    1.65787
       O    11.68525   12.20950    0.75945
      H1    12.08220   12.89129    0.16439
       H    16.11184   17.57732    5.30980
       O    16.91883   17.60199    4.75640
      H1    17.58840   17.17263    5.27368
       H    14.64158   13.13685   -0.45019
       O    15.54504   12.73033   -0.55335
      H1    15.47361   11.82285   -0.84469
       H    15.00486   10.34255    2.71781
       O    14.13618   10.56692    3.11706
      H1    14.22572   10.55352    4.08818
       H    13.47407   13.89182    3.45263
       O    13.03825   13.06074    3.14901
      H1    13.63075   12.28576    3.17119

