66
frame 6 | Written by MDAnalysis XYZWriter (release 2.4.3)
       H     0.71270   17.40825  -10.46742
       O     1.47528   17.20107  -11.06401
      H1     2.18411   16.76454  -10.51261
       H     8.75323   14.88769  -11.32912
       O     8.61562   15.41605  -12.13811
      H1     8.18197   14.91910  -12.80759
       H     3.02986   11.88771   -6.30113
       O     3.94756   12.06787   -6.47967
      H1     4.11436   12.91955   -6.98108
       H     6.77184   17.38836  -12.90746
       O     6.85669   17.74870  -13.82959
      H1     7.73032   18.14061  -13.88073
       H     8.99165   12.47605   -8.21694
       O     9.81082   12.54812   -7.79232
      H1     9.58555   12.63823   -6.85794
       H    11.79478   17.54137   -9.95112
       O    12.28685   16.76283   -9.69184
      H1    12.43916   16.01071  -10.32811
       H    11.17555   18.51741   -6.80327
       O    11.43782   18.42488   -7.70627
      H1    11.87844   17.56454   -7.64269
       H     9.24069   15.80907   -8.89072
       O     8.63409   16.37996   -9.40919
      H1     9.12511   17.20156   -9.54669
       H     7.10315   18.05759   -3.73998
       O     7.11858   17.21209   -3.40495
      H1     7.19424   17.39068   -2.45380
       H     5.54541   16.50128  -10.20487
       O     5.66609   16.03455  -11.04850
      H1     6.62843   15.88828  -11.15009
       H     4.08307   17.84851  -12.36660
       O     3.52313   18.63017  -12.19703
      H1     2.74463   18.22332  -11.83637
       H     3.13699   16.44329   -8.36229
       O     3.26914   15.83528   -9.12216
      H1     3.72204   14.96543   -8.87539
       H     6.06244   18.11304   -8.44882
       O     6.00497   17.16512   -8.48681
      H1     6.93961   16.88876   -8.65552
       H    10.49939   14.16818   -7.88060
       O    10.65266   15.11866   -7.71890
      H1    11.54780   15.21962   -8.08455
       H     5.28903   14.36957  -10.82272
       O     5.33149   13.39506  -10.58839
      H1     4.43723   13.21891  -10.29642
       H     6.65055   13.99544   -3.81371
       O     7.40778   14.54758   -3.83093
      H1     7.22702   15.46433   -3.76237
       H     4.08240   17.84872   -5.43505
       O     4.42989   18.39891   -4.70241
      H1     4.45484   17.76694   -3.96253
       H     2.11269   17.70542   -7.42168
       O     3.06076   17.88683   -7.24753
      H1     3.15332   18.79160   -7.57624
       H    10.21207   15.92505   -6.06655
       O    10.69137   16.32463   -5.32810
      H1    10.19016   17.14936   -5.13927
       H    10.29031   18.96811   -9.05338
       O     9.63167   19.24484   -9.73262
      H1    10.11171   19.91404  -10.17669
       H     4.92014   15.34654   -7.98893
       O     5.02137   14.38689   -7.72292
      H1     5.81824   14.10666   -8.14167
       H     6.64695   12.46062   -9.48731
       O     7.20454   12.31269   -8.69998
      H1     6.76695   11.74202   -8.03888

