66
frame 7 | Written by MDAnalysis XYZWriter (release 2.4.3)
       H   -16.56867  -18.52196   16.55897
       O   -16.44272  -18.07655   15.73116
      H1   -16.26333  -18.82821   15.08671
       H   -10.76795  -13.05955   13.17769
       O   -11.00359  -13.85101   12.66096
      H1   -11.95049  -13.95347   12.67156
       H   -17.86982   -9.88994   11.92715
       O   -18.11699  -10.75542   12.28656
      H1   -19.07766  -10.95603   12.34896
       H   -14.24693  -10.03257   15.21200
       O   -13.95100  -10.83502   15.63540
      H1   -13.25366  -10.55837   16.32874
       H   -16.25674  -13.99211   18.89734
       O   -16.80349  -13.32017   18.42555
      H1   -16.45073  -13.12109   17.56283
       H   -15.19838  -18.63489   11.80269
       O   -15.61304  -17.92772   12.34124
      H1   -14.91493  -17.46217   12.84294
       H   -14.85571  -12.11835   15.83794
       O   -15.29774  -13.00524   15.93213
      H1   -14.62642  -13.66136   16.02327
       H   -17.66610  -10.48965   14.17768
       O   -17.59036  -10.19568   15.09341
      H1   -16.75266   -9.75082   14.99960
       H   -19.15995  -14.27294   12.35310
       O   -18.54528  -14.33283   13.13860
      H1   -18.94809  -13.79696   13.81776
       H   -11.39484  -15.97323   16.05469
       O   -12.21131  -16.01518   16.54187
      H1   -12.07989  -15.46665   17.31208
       H   -15.92651  -13.81234    9.18812
       O   -16.88925  -14.09865    9.14400
      H1   -17.00606  -14.70750    9.85711
       H   -14.94161  -12.30195   12.69588
       O   -15.27981  -11.38584   12.72539
      H1   -16.22126  -11.54998   12.62211
       H   -12.24152  -16.77712   12.34239
       O   -12.63982  -16.81442   13.21657
      H1   -12.04150  -16.23456   13.76766
       H   -14.85063  -14.40967   12.29014
       O   -14.28372  -13.84815   12.83966
      H1   -14.47496  -14.13637   13.75603
       H   -19.65567  -17.31368   10.05239
       O   -18.73342  -17.03055   10.24214
      H1   -18.65567  -17.01415   11.18000
       H   -14.33693  -17.97699   16.24440
       O   -13.43530  -18.33204   16.28745
      H1   -12.92452  -17.44295   16.37873
       H   -17.80641  -14.71548   18.53865
       O   -18.20245  -15.56460   18.24833
      H1   -19.13154  -15.34189   18.08361
       H   -19.17666  -16.20947   13.35737
       O   -19.60493  -17.00212   13.04419
      H1   -19.42908  -17.63998   13.72369
       H   -18.37900  -13.08760   16.62591
       O   -18.73868  -12.87475   15.75782
      H1   -18.57236  -11.96836   15.60164
       H   -12.30574  -19.72528   14.71433
       O   -12.23423  -19.69276   13.71218
      H1   -12.08935  -18.74259   13.54669
       H   -16.70627  -15.29015   12.30203
       O   -16.32596  -15.54336   11.41001
      H1   -15.96601  -16.44002   11.55712
       H   -16.82479  -14.79794   14.34354
       O   -16.13262  -15.48787   14.38169
      H1   -16.43520  -16.27435   14.90957

