66
frame 7 | Written by MDAnalysis XYZWriter (release 2.4.3)
       H     8.09429    9.80660   10.84378
       O     8.54030    8.99113   10.55033
      H1     8.01074    8.82285    9.74622
       H     4.72393   11.91938   14.86016
       O     5.48724   11.57801   15.37529
      H1     5.91539   10.84233   14.92572
       H     3.32295   13.78906   14.50433
       O     3.51098   12.91348   14.24637
      H1     3.93733   13.00074   13.38460
       H     7.79844   15.83642    8.30931
       O     7.44446   14.96581    8.04328
      H1     6.80510   15.24916    7.37947
       H    10.29582    9.76151   10.83895
       O    10.90831   10.34940   11.23960
      H1    11.46092   10.76283   10.55372
       H    13.11420   11.88921    9.06052
       O    12.14950   11.93618    9.28444
      H1    11.94169   12.82004    9.66596
       H     6.76441   16.74554   12.51926
       O     5.87480   16.42832   12.45991
      H1     5.83092   16.09267   11.56532
       H     6.57469   15.01302   14.03015
       O     7.52592   15.19342   14.37242
      H1     7.77440   14.30254   14.64399
       H     7.97345    8.26093    7.34762
       O     7.40589    8.54212    8.08369
      H1     7.27600    9.49039    8.12384
       H     9.25451   12.55131   15.30367
       O     8.38447   12.66113   14.81490
      H1     7.61420   12.38830   15.29667
       H     4.71709   13.97821   10.80128
       O     4.54438   13.15353   11.32701
      H1     3.81862   12.64517   10.92210
       H    10.62542    6.44458   10.94068
       O    10.85385    7.34114   10.71715
      H1     9.98378    7.71772   10.58911
       H     5.97118   12.16326   11.45150
       O     6.60006   11.45986   11.10981
      H1     7.43136   11.83064   11.20872
       H     9.05453   12.46688   12.92541
       O     9.37009   12.57596   12.01803
      H1     9.87004   11.82993   11.84050
       H     4.96989   10.83766    5.90332
       O     5.16720   11.78706    6.18335
      H1     5.92321   11.79198    6.74423
       H    10.84940   12.00467    8.06019
       O     9.99760   11.86851    7.57561
      H1    10.22069   12.14594    6.72236
       H     7.89617   11.68095    8.14584
       O     7.00767   11.35987    8.29482
      H1     6.76842   11.49668    9.20984
       H     6.10415   15.27522    9.27721
       O     5.46178   15.37187    9.99796
      H1     4.74491   15.98610    9.67857
       H     2.77015    7.33655   12.36912
       O     2.97920    8.26606   12.12495
      H1     3.89563    8.31632   12.30309
       H    11.11419   15.13979   10.59621
       O    11.20577   14.17275   10.70720
      H1    10.41895   13.92478   11.28371
       H     6.31330    9.13190   12.89610
       O     5.94875    8.74982   12.11519
      H1     5.88559    9.47807   11.47952
       H     7.25101    8.86802   15.04877
       O     6.29472    9.07080   14.88430
      H1     6.02785    9.22418   15.81631

