66
frame 8 | Written by MDAnalysis XYZWriter (release 2.4.3)
       H   -16.76542   -5.53268   -7.23230
       O   -17.13095   -6.26346   -6.68527
      H1   -17.41471   -5.69668   -5.91972
       H   -13.61626   -4.97353   -4.71972
       O   -14.54996   -4.97572   -4.96756
      H1   -15.15029   -5.08438   -4.22939
       H   -10.93783   -7.76763   -5.32525
       O   -11.21629   -7.51258   -4.40114
      H1   -11.63666   -6.62637   -4.40065
       H   -15.45045   -3.62865   -6.06485
       O   -15.53963   -2.77892   -6.52445
      H1   -14.99214   -2.33546   -5.90503
       H   -16.12292   -5.66821   -9.81660
       O   -16.54690   -4.96739   -9.31757
      H1   -15.82912   -4.29674   -9.23876
       H   -13.26355   -8.37401   -9.61987
       O   -13.89889   -7.64268   -9.40458
      H1   -13.62315   -6.92559   -9.99089
       H   -14.25705   -8.07401   -7.19946
       O   -15.00620   -8.05349   -6.60250
      H1   -15.53506   -7.28143   -6.73414
       H   -14.90176   -8.83767   -4.31407
       O   -14.46670   -8.10556   -3.88832
      H1   -14.39017   -7.48229   -4.59064
       H    -9.96649   -6.04795   -9.11557
       O   -10.81306   -6.30355   -8.74021
      H1   -10.53655   -7.05792   -8.12696
       H   -10.31199   -9.83084   -6.00213
       O   -10.01308  -10.29932   -5.16398
      H1   -10.80469  -10.46529   -4.69636
       H   -10.85099   -8.79657   -7.89596
       O   -10.42868   -8.47188   -7.05909
      H1    -9.50165   -8.56614   -7.26194
       H   -15.92887  -10.53218   -5.63041
       O   -15.74379  -10.53802   -4.66815
      H1   -16.43791   -9.99064   -4.20159
       H   -18.64360   -8.28459   -8.38372
       O   -18.61373   -7.53290   -9.00909
      H1   -18.15656   -6.85275   -8.51664
       H   -12.64700   -9.61741   -3.81918
       O   -12.26308  -10.53882   -3.72826
      H1   -13.00576  -11.13250   -3.80494
       H   -15.05062   -7.39150  -10.60617
       O   -15.61513   -6.74332  -11.12980
      H1   -16.47556   -7.22136  -11.22640
       H   -17.60844  -13.27790   -6.14702
       O   -17.83409  -12.37393   -6.01471
      H1   -17.70837  -11.97467   -5.14919
       H   -14.98242  -12.15397   -4.10470
       O   -14.30155  -12.73700   -3.62848
      H1   -14.57308  -12.73582   -2.69908
       H   -13.59248   -7.36723   -2.23763
       O   -13.22903   -6.60726   -1.88634
      H1   -12.87030   -6.10698   -2.67685
       H   -18.85259   -9.04892   -5.97050
       O   -18.26456   -8.91246   -6.72147
      H1   -17.83876   -8.10635   -6.54088
       H   -11.54710   -9.81500  -10.05716
       O   -11.75198   -9.64419   -9.12054
      H1   -12.28327  -10.43176   -8.81987
       H   -13.73230  -12.10680   -8.90845
       O   -13.37871  -11.52533   -8.24549
      H1   -14.15914  -11.24786   -7.70313
       H   -16.70878  -11.10268   -7.10873
       O   -15.81995  -10.73948   -7.21199
      H1   -16.01972   -9.78336   -7.33082

