66
frame 0 | Written by MDAnalysis XYZWriter (release 2.4.3)
       H    -1.61240  -10.97287   -0.76307
       O    -1.57299  -11.59261   -1.46302
      H1    -1.59996  -12.44265   -1.11120
       H    -0.63418  -17.53922    0.63641
       O     0.30987  -17.60853    0.64851
      H1     0.60724  -16.94289    0.00814
       H    -0.19705  -13.56574    5.44148
       O    -0.22876  -12.66340    5.66544
      H1     0.59293  -12.53199    6.12539
       H     1.34360  -10.28136    2.14628
       O     1.39164  -10.10920    1.19692
      H1     1.00520   -9.24388    1.18275
       H    -0.44143  -14.87707    3.48054
       O     0.05245  -15.21745    4.23590
      H1     0.97701  -14.93972    4.00631
       H    -3.31091  -17.31839    3.94043
       O    -2.89986  -17.13341    4.75187
      H1    -2.21632  -17.84867    4.69948
       H    -5.52037  -11.68781    0.92076
       O    -5.93558  -11.40426    1.72796
      H1    -5.77594  -12.13234    2.39042
       H    -1.69209   -8.52888   -1.38762
       O    -1.89453   -8.94823   -0.55528
      H1    -1.22937   -8.46600   -0.00038
       H    -4.92004  -13.96211   -0.59426
       O    -4.61885  -13.51549   -1.37134
      H1    -3.69594  -13.67564   -1.33787
       H    -2.93056  -15.24257    4.72008
       O    -3.30396  -14.35493    4.73730
      H1    -4.16311  -14.46140    4.36226
       H    -6.27314  -13.22870    4.33980
       O    -5.91143  -13.53762    3.47178
      H1    -6.56313  -14.12585    3.14371
       H    -1.75752  -14.33300   -2.37364
       O    -1.47185  -14.28540   -1.45107
      H1    -0.51468  -14.47388   -1.53228
       H    -1.48845  -10.53628    2.99347
       O    -2.06066  -10.88022    2.24687
      H1    -2.56586  -10.11078    1.98353
       H    -1.92791  -15.85681   -0.43891
       O    -2.22648  -16.11789    0.47863
      H1    -2.12375  -15.33216    1.02956
       H    -3.38016  -17.04107    1.57454
       O    -3.95427  -17.39672    2.29847
      H1    -4.86596  -17.01463    2.27812
       H    -4.33309  -10.33414   -1.36988
       O    -4.86009  -10.84759   -0.73585
      H1    -4.71056  -11.75731   -1.04272
       H    -0.53735  -11.03014    5.01025
       O    -0.33497  -10.32489    4.37320
      H1    -0.52294   -9.45886    4.69528
       H     1.79883  -16.05071   -1.64620
       O     1.11980  -15.68013   -1.11851
      H1     1.34917  -14.95318   -0.56461
       H     1.39104  -10.64245    4.00661
       O     2.30774  -10.65506    3.83178
      H1     2.86450  -11.24706    4.34743
       H     0.04161  -13.56039    1.08615
       O     0.92599  -13.39723    0.91506
      H1     1.03014  -12.43432    0.82365
       H    -2.27435  -13.27495    1.98328
       O    -1.78922  -13.96838    2.42929
      H1    -2.15182  -13.91273    3.34846
       H    -5.74935   -9.71788    2.32985
       O    -5.92576   -8.77388    2.48648
      H1    -5.67670   -8.62661    3.42169

