66
frame 7 | Written by MDAnalysis XYZWriter (release 2.4.3)
       H     5.62795  -19.14222  -15.00783
       O     4.78599  -19.26275  -14.48460
      H1     4.46766  -20.07408  -14.90828
       H     2.60508  -16.52944   -9.71590
       O     2.72687  -17.39688  -10.10653
      H1     2.46505  -17.33418  -11.11063
       H     0.22219  -18.03371  -15.56083
       O     1.07603  -18.41949  -15.49779
      H1     1.00409  -19.09777  -14.88043
       H     5.68530  -13.89967  -12.62076
       O     4.69972  -13.73853  -12.57346
      H1     4.72284  -12.82636  -12.94279
       H     6.90764  -17.53674   -9.08625
       O     6.82756  -16.65499   -9.54518
      H1     6.12086  -16.79015  -10.20908
       H     5.47768  -16.59835   -6.42601
       O     4.71288  -17.17432   -6.27244
      H1     4.01323  -16.45873   -6.24991
       H    -0.84692  -17.14358  -12.79007
       O    -1.39269  -17.71171  -12.19660
      H1    -0.84824  -17.73622  -11.34953
       H     1.42843  -15.80506  -15.37406
       O     1.97475  -15.15076  -15.86983
      H1     2.85356  -15.26770  -15.44099
       H     2.40260  -18.24032  -13.28959
       O     2.51167  -17.46343  -12.77278
      H1     3.11139  -16.93600  -13.30931
       H     5.43758  -19.95378  -12.71355
       O     5.36229  -19.66604  -11.80336
      H1     5.10236  -18.75248  -11.88961
       H     7.09846  -19.55492  -10.19677
       O     6.93260  -19.41423   -9.29803
      H1     5.96826  -19.43382   -9.19480
       H     0.98734  -16.56270  -13.23089
       O     0.21799  -16.11052  -13.66329
      H1     0.08691  -15.23425  -13.25809
       H     4.95009  -15.84143  -15.39356
       O     4.31286  -15.62483  -14.65506
      H1     4.69130  -14.84500  -14.29326
       H     4.08776  -16.73320  -11.24705
       O     4.99497  -16.74569  -11.52526
      H1     4.92433  -16.16809  -12.29982
       H     0.79445  -17.71879   -9.58516
       O    -0.08636  -17.97341   -9.83031
      H1    -0.12051  -18.94081   -9.96521
       H     0.72385  -16.70186   -6.81324
       O     0.02640  -17.29590   -7.13469
      H1    -0.07007  -17.33905   -8.07598
       H     3.54432  -13.72936   -9.66804
       O     2.83540  -14.35215   -9.40990
      H1     2.01837  -13.85422   -9.65998
       H     4.34718  -12.18356   -9.84519
       O     5.11318  -12.84955   -9.87333
      H1     5.11443  -13.07641  -10.83285
       H     2.59772  -14.81682   -7.70656
       O     2.31490  -15.22265   -6.88907
      H1     1.75837  -14.51076   -6.47698
       H     8.28149  -18.48410  -13.17390
       O     8.13070  -17.62482  -12.75871
      H1     7.51641  -17.76566  -12.04491
       H     0.77154  -12.82444  -14.11979
       O     0.63060  -13.28467  -13.24162
      H1    -0.34694  -13.08486  -13.19677
       H     3.94020  -18.59719   -9.01548
       O     4.30939  -19.21027   -8.38997
      H1     4.54124  -18.64409   -7.62718

