66
frame 0 | Written by MDAnalysis XYZWriter (release 2.4.3)
       H    -8.90134   -7.17954   -5.01253
       O    -8.54963   -6.75294   -4.19346
      H1    -8.59261   -5.81616   -4.17270
       H    -9.80078  -10.46626   -9.68108
       O    -9.10853  -10.68112   -9.06155
      H1    -9.51107  -11.17330   -8.27638
       H    -9.87110  -14.09649   -7.46125
       O    -9.35316  -13.29489   -7.28289
      H1    -8.64563  -13.65924   -6.70568
       H   -12.53787   -9.44564   -9.20777
       O   -12.51630   -8.54244   -9.51482
      H1   -13.02108   -8.07734   -8.88639
       H    -9.29873   -8.33197   -7.66298
       O    -9.53492   -8.08612   -6.77282
      H1   -10.03832   -8.88960   -6.47799
       H   -11.55335   -7.40333  -10.38683
       O   -10.90489   -6.93453  -10.93831
      H1   -11.43087   -6.91588  -11.79564
       H    -7.88193   -8.02076  -10.42423
       O    -7.45833   -7.79679   -9.57027
      H1    -7.54046   -6.85433   -9.41398
       H   -13.49931   -5.73436   -8.56561
       O   -13.53589   -6.52051   -7.95618
      H1   -12.71216   -6.36303   -7.41940
       H   -14.46388   -9.81027   -6.74191
       O   -14.55211   -9.50106   -5.82022
      H1   -15.00711   -8.66238   -5.92474
       H   -12.14712   -8.65633   -4.60602
       O   -11.94541   -7.82190   -4.15137
      H1   -11.32414   -8.07242   -3.41521
       H    -6.78797   -7.07460   -4.26520
       O    -5.83590   -6.99209   -4.47884
      H1    -5.72779   -7.24982   -5.42210
       H    -8.88988  -12.35468   -5.51289
       O    -9.25189  -11.80184   -4.81527
      H1    -8.49381  -11.63607   -4.27129
       H    -5.90971   -7.12022   -8.14139
       O    -5.42472   -7.54736   -7.44604
      H1    -5.30475   -8.41682   -7.81789
       H    -9.64142   -9.68541   -2.85756
       O    -9.77290   -8.75439   -2.63402
      H1    -9.42167   -8.21411   -3.38824
       H    -8.36778  -11.63167   -2.19891
       O    -7.81789  -10.97238   -2.66281
      H1    -7.07901  -10.86190   -2.08273
       H    -9.25120   -4.73379   -8.75309
       O   -10.10222   -5.15348   -8.97922
      H1    -9.94300   -5.79948   -9.64593
       H   -10.80194  -12.27423   -3.85186
       O   -11.77160  -12.13140   -3.91480
      H1   -11.80203  -11.33885   -4.43620
       H   -12.71280  -11.69788   -8.85054
       O   -13.22835  -11.09167   -8.34161
      H1   -14.14856  -11.29090   -8.53597
       H    -7.43104   -9.10098   -7.15558
       O    -7.06069   -9.97233   -7.24330
      H1    -7.64375  -10.38534   -7.89406
       H   -10.53666  -10.71742   -5.65254
       O   -11.26641  -10.19747   -6.04393
      H1   -11.55494  -10.72827   -6.78626
       H    -7.32232  -13.01399   -9.83426
       O    -7.24414  -12.13615  -10.16105
      H1    -7.99556  -11.63186   -9.78944
       H   -10.85423   -5.51903   -7.54225
       O   -11.28195   -5.72866   -6.68556
      H1   -10.90607   -6.57349   -6.58447

