66
frame 7 | Written by MDAnalysis XYZWriter (release 2.4.3)
       H    16.47670   13.17914    4.29286
       O    17.05616   12.49455    3.81326
      H1    16.63268   11.64753    3.74571
       H    13.59507    8.92743    2.55725
       O    13.33721    8.09194    2.08698
      H1    13.66471    8.05156    1.21558
       H    17.70909   12.86937    1.78166
       O    17.80952   13.33684    0.93966
      H1    16.97071   13.26487    0.46451
       H    12.61894    7.96132    7.07926
       O    12.84747    8.13721    6.14849
      H1    12.12570    8.67668    5.81429
       H    17.66440    9.67343    2.79121
       O    16.70668    9.58412    3.01980
      H1    16.70020    8.95681    3.79927
       H    19.40714   10.15234   -0.32663
       O    19.44086    9.25354    0.03338
      H1    18.72363    8.72254   -0.21758
       H    17.95944   11.76564    5.67903
       O    17.54491   11.41068    6.48493
      H1    18.21931   10.84484    6.85330
       H    15.28528    7.61603    5.62346
       O    16.09592    7.77861    5.14880
      H1    15.93093    7.34821    4.33320
       H    10.57578   13.46869    4.98129
       O    10.65066   12.56331    4.59470
      H1    11.37641   12.58389    3.97450
       H    13.63342    6.99938    3.35349
       O    13.81343    6.40137    4.13627
      H1    13.32090    6.86867    4.82327
       H    15.65552   15.18833    5.20651
       O    15.47004   14.25911    5.27829
      H1    15.96698   13.90229    6.08209
       H    14.64198    9.62745    6.27275
       O    14.66903   10.57249    6.09489
      H1    15.63120   10.61514    6.04886
       H    15.96923    5.35458    2.53151
       O    16.68043    6.02669    2.74956
      H1    17.20147    5.48832    3.35717
       H    10.09596    7.97250    2.56187
       O    10.64909    7.17644    2.71751
      H1    11.11177    7.07177    1.86279
       H    19.01578   15.00542    5.36231
       O    18.29985   14.95127    4.67167
      H1    18.14632   14.01268    4.44020
       H    12.04104   12.45102    1.65787
       O    11.68525   12.20950    0.75945
      H1    12.08220   12.89129    0.16439
       H    15.86730    7.76301    0.12249
       O    14.93813    7.61305   -0.13204
      H1    14.94864    6.89178   -0.74543
       H    13.78189    9.81612   -2.01935
       O    14.68886    9.54235   -1.92150
      H1    14.73183    8.87672   -1.22716
       H    14.64158   13.13685   -0.45019
       O    15.54504   12.73033   -0.55335
      H1    15.47361   11.82285   -0.84469
       H    15.00486   10.34255    2.71781
       O    14.13618   10.56692    3.11706
      H1    14.22572   10.55352    4.08818
       H    13.47407   13.89182    3.45263
       O    13.03825   13.06074    3.14901
      H1    13.63075   12.28576    3.17119
       H    17.44212    6.77004    1.19182
       O    17.58147    7.19680    0.28182
      H1    17.61238    6.43307   -0.25179

