66
frame 8 | Written by MDAnalysis XYZWriter (release 2.4.3)
       H    -6.32800  -16.89236   10.02289
       O    -5.88499  -16.39435    9.36692
      H1    -5.26541  -16.99677    8.93990
       H    -5.94667  -17.41617   12.91372
       O    -6.19307  -16.46300   12.91066
      H1    -5.46750  -15.94954   12.45173
       H    -7.10638  -15.18882    6.59210
       O    -6.33684  -15.16628    5.93246
      H1    -6.67096  -15.63007    5.18765
       H    -9.07792   -9.94292   10.29085
       O    -8.38677   -9.99224    9.61203
      H1    -8.36304  -10.89192    9.32056
       H    -8.60330  -12.97494   12.08200
       O    -7.86125  -12.92789   12.69533
      H1    -7.29733  -12.18121   12.38796
       H   -10.64421  -14.15234    7.44032
       O   -10.40540  -14.66050    8.20686
      H1   -11.24427  -14.87953    8.64311
       H    -4.66076  -15.58901   10.63848
       O    -4.56461  -15.06270   11.46547
      H1    -3.73865  -15.18841   11.96456
       H   -10.46126  -16.02773    4.81493
       O   -10.45320  -15.23928    5.39771
      H1   -10.34538  -15.61359    6.28196
       H    -3.76458  -12.03087   10.73255
       O    -4.14438  -12.42364   11.53295
      H1    -4.31839  -13.31740   11.24365
       H    -7.29059  -17.89044    4.24913
       O    -6.64487  -17.13699    4.15319
      H1    -6.97821  -16.81815    3.33973
       H    -9.10393  -17.12565   10.68184
       O    -9.56244  -17.84043   10.21585
      H1    -9.18223  -17.87819    9.34596
       H    -4.25114  -18.95582    8.14433
       O    -4.32660  -18.57470    9.02080
      H1    -3.46941  -18.29571    9.30477
       H    -2.99288  -14.74648    6.39096
       O    -3.51742  -14.57808    5.60228
      H1    -4.37146  -14.98474    5.86458
       H    -7.18588  -12.36735    4.41016
       O    -6.48749  -12.94309    4.15567
      H1    -6.67699  -13.71955    4.70742
       H    -8.05103  -17.41797    6.80738
       O    -7.75369  -17.61499    7.72402
      H1    -7.17513  -16.91551    8.05102
       H   -11.03484  -13.95737   11.11131
       O   -10.66107  -13.29244   11.72353
      H1   -11.30945  -13.38108   12.46875
       H    -7.51057  -14.68905   11.06170
       O    -8.07828  -15.48175   11.17833
      H1    -7.53072  -16.03784   11.75623
       H    -8.70680  -14.99101    8.52043
       O    -7.80569  -14.81165    8.20662
      H1    -7.19041  -15.24054    8.75217
       H    -4.65257  -11.99203    6.80824
       O    -5.17586  -11.51064    6.12012
      H1    -5.34004  -12.09566    5.34466
       H   -11.44536  -16.83191    9.72395
       O   -12.17563  -16.23921    9.70632
      H1   -12.62025  -16.41601    8.85567
       H    -7.56233  -12.93766    7.90380
       O    -7.45471  -11.98081    7.74366
      H1    -6.55563  -11.87167    7.37276
       H    -3.02020  -11.48619    8.29561
       O    -3.93808  -11.82874    8.51134
      H1    -4.42366  -10.99559    8.44370

