66
frame 8 | Written by MDAnalysis XYZWriter (release 2.4.3)
       H     2.28231   14.88721   -1.85024
       O     1.64005   14.18550   -2.03150
      H1     0.74265   14.48950   -1.82225
       H     2.88936   10.09796   -2.53630
       O     2.82088    9.62915   -3.37753
      H1     3.38529    8.86305   -3.36461
       H     7.70135   10.97117   -1.69117
       O     6.78579   10.75873   -1.85726
      H1     6.60523   11.05103   -2.74943
       H     5.38407   12.45330    0.21573
       O     5.30526   11.48024    0.15214
      H1     5.80265   11.24487   -0.68806
       H     1.39221    7.72430   -0.21672
       O     2.16266    7.31774    0.25790
      H1     2.39576    7.86854    1.01576
       H     6.99673    9.80001    0.36402
       O     7.75603    9.44357    0.84796
      H1     8.07352    8.70716    0.29118
       H     3.38645   16.73072   -2.14476
       O     3.68264   15.86514   -2.02954
      H1     4.08071   15.81186   -1.15575
       H     2.12623   10.30642   -4.91925
       O     2.03601   10.88317   -5.67939
      H1     1.09802   10.81686   -5.90832
       H     3.49324    7.56932   -1.12293
       O     3.67674    7.44323   -2.05187
      H1     3.37758    6.54556   -2.28005
       H     3.34720   14.14170    1.28717
       O     2.86645   13.44515    0.82458
      H1     2.53410   13.98746    0.06264
       H     6.30371    8.06838    1.01598
       O     5.50870    7.59292    0.67013
      H1     4.78306    7.82141    1.30814
       H     5.15409   11.62645   -3.73584
       O     5.22278   10.72597   -4.05243
      H1     4.32350   10.35067   -4.15113
       H     3.58090    8.70708    3.47976
       O     3.08109    8.72581    2.65271
      H1     2.66074    9.57532    2.74125
       H     6.44267   14.38218   -3.62842
       O     7.23014   14.96444   -3.95266
      H1     6.87397   15.75651   -4.40512
       H     0.16552   10.69364    0.37454
       O     0.29956   10.69431   -0.57136
      H1     1.20349   11.01060   -0.72007
       H     1.87496   12.09296    3.55761
       O     2.33162   11.50989    2.95633
      H1     2.33207   11.94758    2.10277
       H     4.49554   14.47320   -2.92571
       O     4.73084   13.64354   -3.41918
      H1     4.60810   13.74046   -4.35936
       H     6.32322    8.64842   -2.59799
       O     6.86350    7.95011   -3.05605
      H1     6.98596    8.15547   -3.99674
       H     7.55393   12.15449    2.43897
       O     6.68113   11.71272    2.59106
      H1     6.47470   11.60620    1.61613
       H     3.95644   11.43509   -1.09071
       O     3.08925   11.50777   -1.60173
      H1     3.13927   12.37136   -2.05018
       H     5.34254   14.66031    0.67801
       O     5.46870   14.45916   -0.25790
      H1     6.39392   14.16002   -0.23155
       H     1.12324    8.79259   -3.52520
       O     0.21380    8.56118   -3.65489
      H1    -0.24976    9.43774   -3.52848

