66
frame 8 | Written by MDAnalysis XYZWriter (release 2.4.3)
       H     2.18310  -17.06680  -10.90393
       O     2.07641  -17.94784  -11.38211
      H1     2.04632  -17.69850  -12.31596
       H     0.74888  -19.10502  -16.27940
       O     1.66204  -19.19132  -15.92095
      H1     1.48736  -19.83385  -15.22112
       H     9.77711  -20.29427  -15.42742
       O    10.11846  -19.76783  -14.76001
      H1    10.16587  -18.85953  -15.23964
       H     5.06523  -16.70885  -16.72670
       O     5.21243  -15.74428  -16.84892
      H1     6.09804  -15.58780  -16.59079
       H     5.78349  -13.58951  -12.89172
       O     4.85259  -13.43039  -13.04591
      H1     4.80504  -12.51588  -13.37686
       H     5.52262  -15.43622  -18.74973
       O     6.07017  -15.88946  -19.36631
      H1     6.35406  -15.14234  -19.95787
       H     3.49155  -18.18182  -17.26638
       O     4.19343  -18.82314  -17.07992
      H1     3.83202  -19.05265  -16.20477
       H     8.60761  -17.73472   -9.21252
       O     8.42331  -16.76926   -9.06212
      H1     7.63086  -16.68475   -9.57444
       H     0.75393  -15.71884  -15.57271
       O     1.22812  -15.26364  -16.27323
      H1     2.06958  -14.99629  -15.91313
       H     1.67921  -18.12556  -14.70730
       O     1.74025  -17.45465  -13.98414
      H1     2.44652  -16.83122  -14.14983
       H     7.44527  -18.75516  -16.10106
       O     7.07642  -19.56430  -15.81231
      H1     6.84796  -20.04547  -16.61465
       H     9.94675  -15.52303  -11.90512
       O     9.42103  -15.16469  -11.16971
      H1     9.18116  -15.95050  -10.64533
       H     4.72214  -19.16136   -9.72695
       O     5.07284  -18.76446   -8.94905
      H1     4.27020  -18.39351   -8.58573
       H     4.05810  -15.11752  -15.73321
       O     3.57975  -15.18259  -14.85349
      H1     4.09212  -14.59988  -14.22947
       H     5.34557  -16.64908   -9.90454
       O     6.02080  -16.06417  -10.27952
      H1     5.72272  -15.17903  -10.25862
       H    10.79085  -17.16879  -16.01915
       O     9.87382  -17.26502  -15.76494
      H1     9.40884  -17.09471  -16.57043
       H     4.07446  -12.63413   -9.80422
       O     4.23409  -13.43083  -10.30473
      H1     4.25450  -13.32130  -11.28907
       H     7.66465  -14.07259  -14.01993
       O     7.82185  -13.66691  -13.13662
      H1     8.05913  -14.36371  -12.49138
       H     6.52359  -17.57236  -12.75589
       O     6.51813  -17.05695  -13.56318
      H1     5.56521  -17.06228  -13.73827
       H     8.20063  -18.15993  -18.27284
       O     8.07680  -17.38298  -17.76382
      H1     7.33400  -16.92689  -18.15973
       H     8.52586  -15.45075  -15.55460
       O     7.62672  -15.22473  -15.43127
      H1     7.31661  -15.85241  -14.76583
       H    10.06381  -17.99867  -12.58831
       O    10.00189  -17.07523  -12.95972
      H1     9.77737  -17.30974  -13.85964

