66
frame 8 | Written by MDAnalysis XYZWriter (release 2.4.3)
       H    -3.60744  -15.66906  -11.90256
       O    -4.53837  -15.39147  -11.69023
      H1    -4.57186  -14.41539  -11.88811
       H     2.18310  -17.06680  -10.90393
       O     2.07641  -17.94784  -11.38211
      H1     2.04632  -17.69850  -12.31596
       H    -4.26046  -19.76915  -13.87543
       O    -4.89720  -19.10377  -14.08974
      H1    -5.62799  -19.25696  -13.46298
       H    -4.05916  -17.51191  -14.09750
       O    -3.72891  -16.59138  -14.01714
      H1    -4.30079  -16.22742  -13.36356
       H    -1.57477  -16.62242  -12.52897
       O    -1.92896  -16.94121  -11.64040
      H1    -1.16651  -17.03277  -10.99032
       H     0.75393  -15.71884  -15.57271
       O     1.22812  -15.26364  -16.27323
      H1     2.06958  -14.99629  -15.91313
       H     1.67921  -18.12556  -14.70730
       O     1.74025  -17.45465  -13.98414
      H1     2.44652  -16.83122  -14.14983
       H    -6.17088  -18.86647  -11.43656
       O    -6.96332  -19.00604  -12.05691
      H1    -7.31208  -19.94799  -12.10432
       H    -1.82417  -14.08922   -9.57466
       O    -1.20275  -14.00783  -10.33875
      H1    -0.56344  -13.29941   -9.99763
       H     0.29260  -16.43515  -13.55025
       O    -0.37193  -15.76257  -13.71864
      H1     0.08883  -14.90395  -13.51558
       H    -2.99870  -15.66512   -5.66893
       O    -2.31508  -16.14374   -5.14238
      H1    -1.61270  -16.26364   -5.78083
       H    -2.35544  -13.09226   -7.71609
       O    -2.96935  -13.48960   -8.28701
      H1    -3.71145  -12.81134   -8.38472
       H    -2.16542  -17.24329  -16.95457
       O    -2.86869  -16.62758  -16.68733
      H1    -2.74550  -16.58356  -15.67264
       H     0.45545  -18.36861  -10.20819
       O    -0.21765  -18.00495   -9.63629
      H1    -0.71094  -18.81723   -9.49870
       H    -3.24218  -12.36768  -12.80297
       O    -2.26540  -12.33723  -12.69592
      H1    -2.15591  -12.85145  -11.90198
       H    -2.81273  -20.26089  -12.32108
       O    -2.06436  -19.68074  -12.09524
      H1    -2.39230  -18.77866  -11.84469
       H     0.56229  -16.21591   -6.65035
       O    -0.24169  -16.75468   -6.87892
      H1    -0.25283  -17.01439   -7.79961
       H     2.49015  -14.35466   -9.85248
       O     1.84668  -14.95645   -9.45070
      H1     0.98983  -14.81553   -9.90987
       H     1.79725  -14.89739   -7.24914
       O     1.62655  -14.70700   -6.31172
      H1     1.04643  -13.93320   -6.33100
       H     0.31941  -12.98401  -14.51101
       O     0.31146  -13.15963  -13.56172
      H1    -0.60583  -12.84092  -13.37521
       H    -4.54310  -17.34883  -10.38594
       O    -4.99294  -18.06232   -9.85459
      H1    -5.50176  -17.71605   -9.09550
       H    -4.19141  -19.10083   -8.63681
       O    -3.69185  -19.87933   -8.34425
      H1    -3.44982  -19.72903   -7.42469

