66
frame 9 | Written by MDAnalysis XYZWriter (release 2.4.3)
       H     3.07074    4.85044  -11.19440
       O     2.89446    4.30207  -10.35758
      H1     3.74572    4.20260   -9.90542
       H     0.47031    4.88248   -8.61609
       O     1.24273    4.82111   -8.09734
      H1     1.87289    4.51950   -8.77368
       H     0.65261    6.82336  -14.24902
       O     0.03869    7.13219  -13.55885
      H1    -0.32563    6.38999  -13.11852
       H     1.64016    9.19984  -10.61620
       O     1.73430    8.70852  -11.41297
      H1     0.85590    8.61942  -11.85244
       H     1.67211    2.97314  -16.12246
       O     1.12516    3.75404  -15.89869
      H1     1.11243    3.79210  -14.87661
       H     4.46854   10.75864  -10.28454
       O     5.19138   10.24133  -10.57173
      H1     5.99989   10.77528  -10.59012
       H     0.86103    6.50613   -7.53771
       O     0.82245    7.45356   -7.81132
      H1     0.17994    7.81682   -7.18498
       H     2.74767    7.00458  -11.92302
       O     3.19809    6.34543  -12.42461
      H1     2.73519    6.39994  -13.27760
       H     5.23054    5.68213  -13.08344
       O     5.57873    5.23284  -13.81068
      H1     6.43319    4.84983  -13.62078
       H     3.16104    6.75878  -15.33691
       O     2.29572    6.29336  -15.27312
      H1     2.26188    5.41203  -15.71890
       H     1.79906    2.76982  -11.95175
       O     1.45347    2.95572  -12.82258
      H1     0.57525    2.49991  -12.94996
       H     0.63036    8.59544  -16.28043
       O     0.89291    7.96471  -16.93991
      H1     1.32239    7.21534  -16.47798
       H    -0.49743    7.84820   -8.91413
       O    -1.36063    8.19039   -9.31878
      H1    -1.81705    8.73479   -8.64261
       H     3.83039    2.06558  -12.32236
       O     3.90640    1.86924  -11.39621
      H1     3.58444    2.62127  -10.85593
       H     7.70947    6.83371   -8.49380
       O     7.77103    7.45841   -9.26019
      H1     6.89207    7.87437   -9.25816
       H     5.03670    9.13811   -9.01345
       O     5.51569    8.70524   -8.31029
      H1     4.89042    7.94872   -8.10963
       H     5.37495    8.58175  -13.33388
       O     6.11095    8.99936  -12.89948
      H1     5.75376    9.36853  -12.05348
       H    -1.25612    8.79802  -13.72777
       O    -1.58895    9.65909  -13.54686
      H1    -1.43572    9.79428  -12.59934
       H     2.37149   10.83504  -14.06615
       O     2.65733    9.99161  -13.74604
      H1     2.19379    9.75249  -12.89216
       H     2.44036   10.53058   -7.98086
       O     2.65333   10.58872   -8.92820
      H1     2.49132   11.49750   -9.18242
       H     3.88363    5.85027   -7.77252
       O     3.92262    6.75447   -7.35442
      H1     3.00010    7.03145   -7.48585
       H     5.15474    8.54863  -15.59716
       O     4.30183    8.31572  -15.32871
      H1     3.79871    9.09460  -14.96611

