66
frame 0 | Written by MDAnalysis XYZWriter (release 2.4.3)
       H   -12.73023   -8.59126   17.13647
       O   -12.88012   -7.87543   17.81119
      H1   -13.38914   -8.34168   18.46295
       H   -15.75330   -3.61870   12.74735
       O   -15.68538   -3.86285   13.69578
      H1   -16.55505   -3.75574   14.08407
       H   -14.17554   -0.43928   15.66286
       O   -13.24568   -0.40663   15.89704
      H1   -13.01330   -1.03065   15.13607
       H   -10.34392   -2.70631   16.28251
       O   -10.18038   -2.03814   16.86673
      H1    -9.24361   -1.78250   16.74732
       H   -10.54536   -6.38838   17.31009
       O    -9.70926   -6.40570   16.81531
      H1    -9.08630   -5.91657   17.33266
       H   -19.83247   -1.76977   19.44877
       O   -19.47891   -2.63602   19.17267
      H1   -19.35870   -2.45916   18.20635
       H   -18.61766   -6.03781   18.45148
       O   -17.72386   -5.95325   18.06018
      H1   -17.49303   -5.06279   18.22033
       H   -15.99732   -0.13851   14.31456
       O   -15.92070   -0.24840   15.25034
      H1   -16.19747   -1.20182   15.34466
       H   -16.41544   -1.19840   18.63395
       O   -17.24913   -0.97053   19.06497
      H1   -17.70063   -1.77923   19.31285
       H   -16.43976    3.06954   18.97664
       O   -15.98341    2.50328   19.65825
      H1   -15.46063    1.90208   19.11846
       H   -18.98977   -3.95008   15.99863
       O   -19.36660   -3.19113   16.40576
      H1   -19.61484   -2.70833   15.63391
       H   -15.63255   -8.18774   19.33042
       O   -16.58142   -7.98882   19.36402
      H1   -16.89968   -7.21570   18.78600
       H   -13.81769   -6.38902   17.31994
       O   -14.14924   -5.64626   16.82653
      H1   -14.99672   -5.89737   16.46842
       H   -16.74559   -6.99647   15.07944
       O   -16.41916   -6.34705   15.65325
      H1   -17.12552   -6.32911   16.35356
       H   -12.64138   -2.93263   13.97388
       O   -12.43412   -1.95879   13.88469
      H1   -11.77599   -1.88226   13.19966
       H   -12.81460   -0.69389   18.52936
       O   -12.48956   -1.62449   18.48848
      H1   -11.80121   -1.66170   17.81572
       H   -16.15558   -2.79715   16.86748
       O   -16.80882   -2.63272   16.16746
      H1   -17.65912   -2.81651   16.57533
       H   -10.32299   -5.27928   15.68051
       O   -10.36872   -4.52819   15.01321
      H1   -11.35435   -4.46663   14.96209
       H   -18.78038    1.97243   18.30566
       O   -18.92304    1.12860   17.92754
      H1   -18.18007    0.62832   18.21573
       H   -14.54157   -4.19525   17.67787
       O   -14.86914   -3.51167   18.28672
      H1   -14.18154   -3.26292   18.89537
       H   -13.24980   -4.90642   15.51944
       O   -13.09134   -4.45466   14.66194
      H1   -14.00168   -4.19907   14.45734
       H   -11.48048    1.72337   17.18681
       O   -11.15655    1.22315   16.41243
      H1   -11.77269    0.50252   16.37337

