66
frame 9 | Written by MDAnalysis XYZWriter (release 2.4.3)
       H    17.23565   15.69308    2.78699
       O    17.47033   15.72255    1.84902
      H1    17.53022   14.76609    1.70598
       H    15.51639   13.08392    4.86927
       O    16.34230   12.77203    4.42827
      H1    16.54104   11.92426    4.89205
       H    15.05966   15.52390    3.74749
       O    14.17144   15.20215    3.98203
      H1    13.79911   15.83148    4.63007
       H    14.26626    8.45385    2.31073
       O    14.13892    7.47988    2.22765
      H1    14.39655    7.31878    1.35859
       H    17.83139   11.32932   -2.87352
       O    17.28090   10.63594   -3.22493
      H1    16.61086   10.49613   -2.55949
       H    17.06269   12.66573    2.79127
       O    17.06159   12.84834    1.86375
      H1    16.19047   12.73148    1.51808
       H    11.31818    8.90199   -2.09684
       O    11.79256    9.32540   -1.36073
      H1    11.43339    8.86013   -0.58093
       H    18.09095    9.97500    4.49617
       O    17.22171    9.98970    4.91162
      H1    16.89665    9.05997    4.81047
       H    18.67314    9.82374    0.44506
       O    19.29888    9.16068    0.90730
      H1    18.89428    8.25883    0.95040
       H    12.70496   12.59067   -1.73990
       O    12.85340   11.81710   -2.33697
      H1    12.40378   11.11234   -1.86323
       H    10.73615   10.30913    5.68132
       O    11.21890    9.94556    4.93877
      H1    10.51395    9.67049    4.35085
       H    13.12936   15.08198    2.37858
       O    12.49958   15.44715    1.73146
      H1    12.83298   16.33231    1.47475
       H    12.31668   14.28139    0.26574
       O    12.56544   13.87657   -0.57134
      H1    12.43061   14.68519   -1.19372
       H    18.87512   12.35531   -0.29971
       O    18.29796   11.63151   -0.04436
      H1    17.83864   12.00179    0.69456
       H    14.03561    9.27824    6.33762
       O    14.64031    9.82961    6.82029
      H1    15.54202    9.47582    6.78699
       H    10.77132    7.15835    2.63304
       O    11.51490    6.56135    2.61841
      H1    12.33800    7.00775    2.55237
       H    11.41225   11.75174    2.15418
       O    10.67523   12.01275    1.55547
      H1    10.50382   11.32634    0.91648
       H    16.21993    7.46807   -0.59675
       O    15.31790    7.51272   -1.00772
      H1    15.32593    7.17248   -1.89587
       H    14.14144   10.43516   -1.95056
       O    15.04170   10.20813   -1.71392
      H1    14.98593    9.27447   -1.40152
       H    14.23116   12.96692    0.12115
       O    14.90671   12.27926    0.31888
      H1    15.23229   11.76542   -0.43469
       H    14.71736   10.97251    1.87183
       O    14.67140   10.30075    2.53803
      H1    15.53457   10.08253    2.89516
       H    13.43049   12.92111    4.21073
       O    12.80884   12.40323    3.72721
      H1    12.64631   11.65885    4.35898

