66
frame 8 | Written by MDAnalysis XYZWriter (release 2.4.3)
       H     5.23452   -8.29002    9.92708
       O     5.51040   -8.46265   10.86330
      H1     6.08705   -9.25600   10.78111
       H     3.93486   -2.43416   12.77800
       O     4.63357   -2.50424   12.10396
      H1     4.31972   -2.01704   11.33185
       H     7.56493   -3.35124   12.34992
       O     7.56007   -3.41185   11.38593
      H1     6.97820   -4.18173   11.26545
       H     4.25029   -8.16740    5.57137
       O     3.90928   -7.42181    6.13375
      H1     4.41907   -6.63625    5.72832
       H     5.29069   -7.52059    7.45172
       O     6.04489   -7.62871    8.06009
      H1     6.77118   -8.08592    7.59205
       H     4.39591   -4.23435    8.08053
       O     5.06709   -4.36808    8.76743
      H1     4.57556   -4.72273    9.56141
       H     2.59953   -3.28925    7.23348
       O     2.69988   -4.12768    6.81315
      H1     2.22263   -4.71321    7.41858
       H     5.03314   -4.63835    5.96025
       O     5.33372   -5.11119    5.18906
      H1     4.69285   -4.96042    4.45838
       H     7.60942   -6.55881    8.30564
       O     8.14048   -5.80850    8.69230
      H1     9.06211   -5.92487    8.46125
       H     2.95342   -0.35137   10.87709
       O     3.56538   -0.86001   10.35075
      H1     4.40121   -0.34389   10.29190
       H     6.45893   -7.19770   11.06114
       O     6.84858   -6.31441   11.17711
      H1     7.32814   -6.12456   10.33676
       H     2.14606   -5.91110   11.18608
       O     1.27290   -5.84216   10.81784
      H1     0.98134   -4.94611   11.09386
       H     8.23574   -1.32827    9.62460
       O     7.87896   -0.93472   10.43802
      H1     7.47813   -1.73435   10.80548
       H     3.02297   -7.87804    7.64891
       O     2.81438   -8.43474    8.38621
      H1     1.89786   -8.31575    8.73517
       H     4.23353   -4.32291   11.51404
       O     4.28453   -5.25673   11.22756
      H1     5.19054   -5.53559   11.33482
       H     4.38458   -6.72465   12.78557
       O     4.35391   -7.07550   13.67747
      H1     4.66691   -7.99506   13.63958
       H    10.17969   -2.01185    7.77899
       O     9.30516   -1.70835    8.10991
      H1     8.60908   -2.26260    7.77465
       H     2.79387   -0.74741    6.88074
       O     2.35377   -1.44335    7.37945
      H1     2.71024   -1.41312    8.29340
       H     6.10468   -1.92598    6.31896
       O     6.07983   -1.12355    5.80132
      H1     6.53886   -1.30680    4.96132
       H     5.71996   -1.41733   12.76315
       O     6.36701   -0.87210   13.24603
      H1     6.16934   -1.16997   14.11746
       H     0.48129   -6.49248    7.74994
       O     0.54290   -5.57790    8.18703
      H1     0.88229   -5.65816    9.08745
       H     6.41592   -4.00485    7.82450
       O     7.01282   -3.56870    7.21151
      H1     7.68274   -4.24593    7.26899

