66
frame 8 | Written by MDAnalysis XYZWriter (release 2.4.3)
       H   -13.48002  -13.61429  -17.70376
       O   -13.88285  -13.20202  -18.45661
      H1   -14.49712  -12.57805  -18.06671
       H   -17.41985  -15.23574  -10.41940
       O   -17.11701  -15.97208  -10.95982
      H1   -16.71480  -16.50573  -10.25295
       H   -12.01957  -15.26478  -17.12638
       O   -12.33372  -14.43297  -16.76572
      H1   -11.55323  -13.88797  -16.81095
       H   -11.23231  -16.44137  -11.92067
       O   -11.38459  -16.40928  -10.98008
      H1   -10.53431  -16.56546  -10.55770
       H   -14.76415  -16.54276  -19.45839
       O   -14.60762  -17.36403  -18.95038
      H1   -14.13119  -17.97558  -19.51149
       H    -9.89285  -13.91571  -12.08510
       O   -10.41755  -13.53100  -11.34533
      H1   -10.84247  -14.33766  -11.01805
       H   -13.76634  -16.60803  -14.42552
       O   -12.94464  -16.13651  -14.55346
      H1   -12.99287  -15.48642  -15.22452
       H   -17.62490  -13.69594  -17.57191
       O   -17.28051  -14.54178  -17.23946
      H1   -16.40352  -14.32082  -16.84746
       H   -16.44623  -14.41868  -11.88657
       O   -16.31053  -13.67800  -12.46584
      H1   -15.37417  -13.52516  -12.57740
       H   -14.88984  -12.86464  -15.33819
       O   -14.87544  -13.83135  -15.05479
      H1   -14.41886  -13.78724  -14.20212
       H   -17.13992  -18.16809  -17.19993
       O   -16.73619  -18.59931  -17.96934
      H1   -15.95367  -18.08062  -18.18775
       H   -12.89526  -13.06341  -13.05824
       O   -13.57040  -13.73432  -12.74843
      H1   -13.28629  -14.62121  -13.00794
       H   -17.64869  -16.02425  -12.59028
       O   -17.87421  -16.07450  -13.56406
      H1   -17.93902  -15.14598  -13.86444
       H   -10.36601  -17.80982  -18.01995
       O   -10.48769  -16.87123  -18.05206
      H1    -9.59550  -16.49946  -18.30799
       H   -13.65290  -19.29108  -11.53276
       O   -14.61076  -19.10949  -11.71423
      H1   -14.72292  -18.56445  -12.48566
       H   -11.01367  -16.71066  -14.11586
       O   -10.38623  -17.22237  -13.57037
      H1    -9.51919  -16.92895  -13.89176
       H   -11.50448  -18.46298  -11.40562
       O   -11.88434  -19.29371  -11.12700
      H1   -11.14033  -19.88119  -11.06425
       H   -18.76381  -18.35592  -15.62748
       O   -18.36048  -17.53074  -15.93858
      H1   -18.18460  -16.93477  -15.20358
       H   -15.48769  -18.53907  -14.62545
       O   -15.35082  -17.75402  -14.11447
      H1   -16.24479  -17.45832  -13.96917
       H   -15.28745  -17.88825   -8.85359
       O   -15.91092  -17.95196   -9.55729
      H1   -15.40730  -18.28767  -10.25646
       H   -13.86112  -14.04123  -10.59054
       O   -14.22330  -13.93191   -9.70320
      H1   -13.89167  -14.67364   -9.20830
       H   -10.32654  -19.49879  -16.54533
       O   -10.34979  -19.43331  -17.52192
      H1    -9.49058  -19.76203  -17.77464

