66
frame 8 | Written by MDAnalysis XYZWriter (release 2.4.3)
       H   -16.78767    1.18649    5.61754
       O   -16.32394    0.68530    4.89018
      H1   -16.72648    1.02349    4.09819
       H   -16.73804    2.82713    7.23732
       O   -17.11041    1.90217    7.27332
      H1   -18.00473    2.00015    7.64927
       H   -17.74451    0.39018    2.32652
       O   -17.35171    1.29708    2.35974
      H1   -17.94715    2.00897    2.16361
       H   -10.61383    0.14337    3.10397
       O   -10.33922    0.71014    2.32617
      H1   -10.15238    0.03137    1.66714
       H   -13.84556   -2.40817    1.94052
       O   -13.20472   -1.91298    1.35062
      H1   -13.59710   -1.85974    0.48272
       H   -11.88168   -0.95872    4.15626
       O   -10.89550   -0.98264    4.31063
      H1   -10.79954   -0.31204    5.03864
       H   -18.06152   -1.71543    3.10082
       O   -17.77403   -1.26633    2.33010
      H1   -17.03777   -1.74742    2.01277
       H   -16.75429    0.68642    8.58624
       O   -16.94567    0.34609    9.49818
      H1   -16.28053   -0.36955    9.73380
       H   -13.62954   -1.69481    4.53741
       O   -13.53942   -0.73480    4.58489
      H1   -14.36266   -0.28557    4.35175
       H   -10.21363   -3.17084    7.27884
       O   -10.76497   -2.49803    6.91470
      H1   -10.19593   -2.08160    6.27774
       H   -15.33279   -3.48493    3.32392
       O   -16.00178   -3.43130    2.61590
      H1   -15.97816   -4.16041    2.03727
       H   -13.19466   -4.00883    4.00708
       O   -13.86633   -3.49204    4.47795
      H1   -14.12885   -4.05715    5.23754
       H    -9.95808    1.53531    6.71999
       O   -10.22439    0.65875    6.38552
      H1   -11.11533    0.38541    6.73826
       H   -11.80721   -1.05445    7.27630
       O   -12.55632   -0.49860    7.35867
      H1   -12.96014   -0.57911    6.45312
       H   -14.69237   -1.66084    9.07022
       O   -14.82655   -1.23555    9.92464
      H1   -15.35293   -1.90189   10.43991
       H   -10.66702   -3.77025    1.04435
       O   -10.61175   -2.83309    0.75517
      H1   -11.37419   -2.44719    1.22813
       H   -18.28016   -4.42898    4.73455
       O   -18.30148   -3.71925    4.06040
      H1   -17.40638   -3.81724    3.60618
       H   -17.15064   -1.03234    5.18363
       O   -17.76934   -1.55984    5.69449
      H1   -18.11118   -2.30320    5.12584
       H   -13.26465    0.21922    1.32491
       O   -12.88163    1.02238    0.94768
      H1   -12.05688    1.15855    1.47082
       H   -14.29305    1.98987    1.39935
       O   -15.09014    2.58012    1.38800
      H1   -15.84004    2.05392    1.67818
       H   -16.75399   -2.33610    6.97945
       O   -16.07192   -2.76354    7.57772
      H1   -16.51799   -2.85875    8.42403
       H   -12.78010    4.39424    7.54424
       O   -13.14373    3.60937    7.09480
      H1   -13.08880    2.92167    7.81090

