66
frame 9 | Written by MDAnalysis XYZWriter (release 2.4.3)
       H    13.25626   20.37157   11.81457
       O    13.27923   19.82094   12.58444
      H1    13.07946   18.92103   12.19220
       H    15.22096   18.67009   16.27866
       O    14.97110   19.42191   15.72805
      H1    14.41786   19.15964   15.02884
       H    12.95788   17.59637   15.88668
       O    13.13437   17.34494   14.95972
      H1    13.86980   16.71790   14.94540
       H    16.66549   17.94275   14.23646
       O    17.29682   17.50752   14.87133
      H1    18.17117   17.91323   14.80377
       H    12.52400   12.84418   18.01589
       O    12.99729   13.37897   18.71435
      H1    13.58888   12.66888   19.12411
       H    18.58093   19.63000   16.63430
       O    19.38156   19.23880   16.23318
      H1    19.68546   18.42187   16.66089
       H    18.06214   19.39068   18.99371
       O    17.92580   18.55326   19.45973
      H1    17.17034   18.19103   18.99836
       H    14.33795   14.97211   18.13402
       O    14.88451   15.68932   18.44214
      H1    14.17256   16.38924   18.63823
       H    12.98653   18.78214   18.12566
       O    12.80120   17.90717   17.76853
      H1    11.79693   17.84519   17.66555
       H    16.35373   19.96082   12.92143
       O    16.15629   19.06565   12.61869
      H1    15.20994   19.09358   12.45916
       H    16.53659   17.71301   16.56645
       O    16.12898   17.84700   17.46378
      H1    15.62875   17.05371   17.65214
       H    19.49517   13.74620   14.17215
       O    18.65537   13.33518   14.09838
      H1    18.77972   12.38862   13.85531
       H    17.65108   14.89073   16.54954
       O    17.03944   14.25583   16.86998
      H1    16.34485   14.72814   17.32734
       H    15.84354   15.51892   12.16969
       O    14.87688   15.37643   12.06488
      H1    14.75353   14.45503   11.83936
       H    17.59480   11.55972   18.74261
       O    16.72381   11.15521   18.55488
      H1    16.58084   11.50061   17.63696
       H    18.14526   13.78943   18.13197
       O    18.51613   13.22688   18.88979
      H1    18.62756   13.89926   19.61765
       H    10.22577   16.29825   18.24190
       O    10.23304   17.24725   18.12367
      H1     9.46052   17.58923   17.59143
       H    14.55551   14.80813   14.05907
       O    14.72042   14.87560   15.01213
      H1    15.69181   14.87499   15.07435
       H    17.12371   11.41101   15.11501
       O    16.40087   11.65333   15.69729
      H1    16.63656   12.52651   16.01843
       H     9.98270   15.95973   15.53905
       O    10.75869   15.46650   15.70444
      H1    11.46870   16.11724   15.43859
       H    17.52983   16.28165   13.49103
       O    17.46238   15.62618   12.74842
      H1    17.71606   14.76708   13.14065
       H    10.91720   19.82961   15.20100
       O    10.86776   19.04337   14.61514
      H1    11.76816   18.84452   14.40108

