66
frame 9 | Written by MDAnalysis XYZWriter (release 2.4.3)
       H   -16.47892   -6.13625    9.29641
       O   -16.84971   -6.79357    8.66960
      H1   -17.29269   -6.27947    8.02167
       H   -17.87264   -9.70778   11.34914
       O   -17.75556  -10.58341   11.82475
      H1   -18.69635  -10.81754   12.01837
       H   -15.84466   -5.52247   13.62515
       O   -15.25713   -4.76946   13.60827
      H1   -15.07679   -4.35157   14.47546
       H   -14.04204   -9.35696   15.70131
       O   -14.26145  -10.22977   15.45123
      H1   -14.23889  -10.73562   16.31844
       H   -12.79541   -7.65600    9.22935
       O   -13.59281   -8.21073    9.45277
      H1   -14.39921   -7.70549    9.25546
       H   -17.57256   -7.68829   10.01200
       O   -18.01064   -7.80415   10.89084
      H1   -18.91868   -7.71783   10.54058
       H   -11.78077   -9.65307   12.24500
       O   -11.63209  -10.64713   12.16195
      H1   -12.34587  -10.75061   11.50437
       H   -16.82647  -10.03125   13.44802
       O   -16.71446   -9.60949   14.29763
      H1   -15.82908   -9.83917   14.62215
       H   -17.49630   -9.99667    8.13282
       O   -16.91587   -9.34239    7.68663
      H1   -17.05179   -8.43221    8.06937
       H   -15.05340   -4.91198   10.94053
       O   -14.82981   -5.30025   10.06446
      H1   -14.16921   -4.67559    9.69722
       H   -16.93154   -7.44733   13.96578
       O   -17.24721   -6.72269   13.37349
      H1   -17.14939   -7.14125   12.49757
       H   -12.90969  -11.52237   14.93219
       O   -12.19884  -12.09218   14.56248
      H1   -11.89536  -11.51103   13.80106
       H   -15.10616  -12.05932   12.69603
       O   -15.12472  -11.13733   12.40077
      H1   -16.08995  -11.02713   12.22612
       H   -11.10780   -7.44372   11.27288
       O   -11.39602   -7.91711   12.03028
      H1   -11.83942   -7.27578   12.63553
       H   -14.27542  -11.17214   10.84880
       O   -13.70980  -10.94920   10.07546
      H1   -13.85062  -10.02134    9.79760
       H   -14.07064   -7.33048   16.70379
       O   -14.26658   -7.22872   15.73012
      H1   -15.22832   -7.07483   15.65866
       H   -17.58824   -7.18019   17.18017
       O   -16.99035   -6.70339   16.59601
      H1   -17.55692   -6.07729   16.14264
       H   -17.31723  -12.22379    8.88872
       O   -18.14762  -11.68008    9.07616
      H1   -18.04263  -11.37658    9.98587
       H   -10.13558   -8.65120   14.00233
       O   -10.05073   -9.33037   14.70896
      H1    -9.70804  -10.10311   14.22526
       H   -18.62241  -11.48611   16.77256
       O   -18.78144  -10.81694   16.05673
      H1   -17.91301  -10.50413   15.64310
       H   -13.20427   -6.44403   14.62111
       O   -12.79388   -6.03055   13.83697
      H1   -13.71010   -5.76469   13.48661
       H   -15.12840   -8.59344   12.65602
       O   -14.96672   -7.84509   12.04628
      H1   -14.23892   -8.08930   11.43627

