66
frame 8 | Written by MDAnalysis XYZWriter (release 2.4.3)
       H    -7.93314  -16.41018  -10.83425
       O    -8.57444  -17.12140  -10.68338
      H1    -8.11531  -17.92690  -10.89613
       H    -3.60744  -15.66906  -11.90256
       O    -4.53837  -15.39147  -11.69023
      H1    -4.57186  -14.41539  -11.88811
       H    -4.26046  -19.76915  -13.87543
       O    -4.89720  -19.10377  -14.08974
      H1    -5.62799  -19.25696  -13.46298
       H    -7.39128  -16.52266  -15.25055
       O    -7.87943  -16.56458  -14.37927
      H1    -7.48338  -17.36434  -13.90617
       H    -4.05916  -17.51191  -14.09750
       O    -3.72891  -16.59138  -14.01714
      H1    -4.30079  -16.22742  -13.36356
       H    -7.73975  -14.95746  -13.67955
       O    -7.88361  -14.05773  -13.28117
      H1    -7.01017  -13.75398  -13.08015
       H    -6.83031  -18.70649   -5.82714
       O    -6.36725  -17.90271   -5.59343
      H1    -6.24381  -17.43074   -6.46909
       H    -5.29043  -15.90477   -7.28909
       O    -5.97469  -16.34132   -7.85046
      H1    -6.59449  -15.64840   -8.10105
       H    -1.57477  -16.62242  -12.52897
       O    -1.92896  -16.94121  -11.64040
      H1    -1.16651  -17.03277  -10.99032
       H    -8.41850  -18.78691   -8.57980
       O    -7.63271  -19.38526   -8.64427
      H1    -7.59145  -19.95557   -9.38893
       H    -6.17088  -18.86647  -11.43656
       O    -6.96332  -19.00604  -12.05691
      H1    -7.31208  -19.94799  -12.10432
       H    -5.37213  -12.31689  -13.02431
       O    -5.37479  -12.64520  -12.08675
      H1    -5.56769  -11.82773  -11.60923
       H    -3.97608  -14.27370   -7.04012
       O    -4.47096  -14.75182   -6.40158
      H1    -5.16570  -14.17990   -6.01143
       H    -1.82417  -14.08922   -9.57466
       O    -1.20275  -14.00783  -10.33875
      H1    -0.56344  -13.29941   -9.99763
       H    -2.35544  -13.09226   -7.71609
       O    -2.96935  -13.48960   -8.28701
      H1    -3.71145  -12.81134   -8.38472
       H     0.45545  -18.36861  -10.20819
       O    -0.21765  -18.00495   -9.63629
      H1    -0.71094  -18.81723   -9.49870
       H    -2.81273  -20.26089  -12.32108
       O    -2.06436  -19.68074  -12.09524
      H1    -2.39230  -18.77866  -11.84469
       H    -7.31500  -13.61788  -10.21910
       O    -7.48916  -14.34132   -9.63379
      H1    -8.29654  -14.19784   -9.18025
       H     0.56229  -16.21591   -6.65035
       O    -0.24169  -16.75468   -6.87892
      H1    -0.25283  -17.01439   -7.79961
       H    -4.54310  -17.34883  -10.38594
       O    -4.99294  -18.06232   -9.85459
      H1    -5.50176  -17.71605   -9.09550
       H    -5.79012  -13.33578   -9.18779
       O    -5.43230  -12.48651   -9.12423
      H1    -6.06712  -11.99343   -8.51697
       H    -4.19141  -19.10083   -8.63681
       O    -3.69185  -19.87933   -8.34425
      H1    -3.44982  -19.72903   -7.42469

