66
frame 9 | Written by MDAnalysis XYZWriter (release 2.4.3)
       H   -18.38992   12.07441   -8.18478
       O   -18.48802   11.14850   -8.61531
      H1   -19.34710   11.11852   -8.95552
       H   -16.83727   12.21719   -4.31073
       O   -17.66282   12.63898   -4.08286
      H1   -18.30410   12.12845   -4.57170
       H   -14.68388   12.20490   -9.73596
       O   -14.96867   12.16388   -8.85003
      H1   -15.52223   12.95922   -8.70401
       H   -15.26591   12.65546  -12.32318
       O   -14.97522   11.78154  -11.90156
      H1   -15.67417   11.46439  -11.33979
       H   -15.30632    8.48607   -3.04768
       O   -14.47968    7.99924   -2.95965
      H1   -13.86276    8.46192   -2.42064
       H   -14.34803    8.96539  -11.24412
       O   -13.62790    9.42644  -11.71200
      H1   -13.85520   10.33342  -11.96618
       H   -14.00313   14.19271   -5.05603
       O   -14.32495   13.76005   -5.88072
      H1   -13.74828   13.94016   -6.60824
       H   -12.01959    9.69032   -7.72574
       O   -12.60459    8.98973   -7.83757
      H1   -13.48880    9.38002   -7.74887
       H   -11.91844    8.63961   -9.39169
       O   -11.68158    8.27613  -10.24462
      H1   -12.37487    8.74775  -10.73368
       H   -18.72251    9.84784   -6.25159
       O   -19.23960   10.37491   -5.58100
      H1   -19.46734    9.61904   -5.00853
       H   -15.18103    7.14370   -9.48013
       O   -15.52767    7.81019  -10.06720
      H1   -16.11539    7.30787  -10.62545
       H   -14.79917    6.56787   -7.24753
       O   -14.83833    6.10465   -8.07614
      H1   -13.90591    6.00494   -8.34713
       H   -16.82411   10.01316   -3.53733
       O   -16.87838    9.03488   -3.55741
      H1   -16.97803    8.82785   -4.49155
       H   -18.00902   14.32174   -8.58111
       O   -17.32658   13.77290   -8.06197
      H1   -17.20089   14.20329   -7.17379
       H   -12.19541    6.64693   -9.36693
       O   -12.24659    5.67982   -9.28952
      H1   -11.60094    5.49626   -8.59341
       H   -18.21276    8.42749   -7.35327
       O   -17.49367    8.48371   -6.71863
      H1   -16.80259    9.08716   -7.05998
       H   -11.44228    9.83734   -4.71539
       O   -10.73740    9.34871   -5.10407
      H1   -10.86159    8.37954   -4.84064
       H   -15.06048   10.53010   -5.90495
       O   -15.51504   11.15264   -5.32722
      H1   -15.06285   12.03644   -5.46965
       H   -17.80429    6.82915   -5.87974
       O   -18.00201    5.96998   -5.45477
      H1   -18.43103    5.46594   -6.14133
       H   -17.45142   10.59063   -9.84908
       O   -16.90073   10.43269  -10.61256
      H1   -17.53888   10.69692  -11.31191
       H   -13.13016    7.75856   -5.91275
       O   -13.81878    7.13675   -5.68095
      H1   -14.16846    7.47277   -4.85951
       H   -15.48486    8.90933   -8.26904
       O   -15.18753    9.57437   -7.64038
      H1   -15.12962   10.47790   -8.03510

