66
frame 9 | Written by MDAnalysis XYZWriter (release 2.4.3)
       H   -14.18597   14.84087    4.07719
       O   -14.17493   14.99530    5.00265
      H1   -14.90602   15.51147    5.34181
       H   -11.82197   10.17043    3.04288
       O   -12.55755   10.71560    2.88803
      H1   -12.19480   11.60562    2.91824
       H   -13.25011   10.43496    6.66657
       O   -12.45193   10.45869    7.23711
      H1   -12.69201    9.98542    8.07176
       H    -8.39650   16.00074    8.48758
       O    -8.59340   15.60593    7.60947
      H1    -8.92506   16.36023    7.11218
       H    -6.24820   13.29830    8.01420
       O    -6.13880   14.22594    7.78211
      H1    -7.05352   14.60293    7.84224
       H   -13.05819   16.51398    9.43410
       O   -13.87175   16.86762    9.70206
      H1   -13.82508   16.93518   10.65531
       H   -11.10613    9.67529    6.36568
       O   -10.38074    9.27460    5.87198
      H1   -10.50672    9.43078    4.94344
       H    -8.71806   12.24034    3.25369
       O    -8.34338   11.50876    2.78822
      H1    -8.54069   11.60912    1.86063
       H    -9.78667   15.40457    4.02151
       O    -9.95646   16.33032    4.24748
      H1   -10.55656   16.22223    4.99240
       H   -11.99251   14.80321    8.39551
       O   -11.45651   15.55454    8.27389
      H1   -10.60043   15.27628    7.84215
       H   -10.57760   13.52759    4.27589
       O    -9.89932   13.57849    3.49507
      H1   -10.44092   13.89419    2.77227
       H   -12.35463   13.25390    5.96225
       O   -11.49033   13.58324    5.69059
      H1   -10.92424   13.16967    6.42003
       H    -9.29447    9.95430    3.15500
       O   -10.12602    9.43195    3.29686
      H1    -9.80516    8.50481    3.27107
       H   -14.17246   17.99561    8.00925
       O   -14.12380   18.20095    7.03418
      H1   -13.44157   17.57053    6.69516
       H   -14.47805   13.34248    5.82585
       O   -14.81691   12.67569    6.42625
      H1   -14.90169   11.90514    5.81316
       H   -15.11850    9.68587    5.00078
       O   -14.40287   10.34727    5.06923
      H1   -13.92869   10.35788    4.21728
       H   -11.91429   16.43262    6.89985
       O   -12.25428   16.69322    5.96979
      H1   -12.71392   15.89462    5.69940
       H    -9.11123   11.93283    7.87543
       O    -9.14744   12.02844    6.91068
      H1    -9.21518   11.13949    6.70650
       H    -9.27257   10.46218    9.90267
       O    -9.30544   11.37358    9.62530
      H1   -10.12808   11.79697    9.91308
       H    -6.81177   10.64386    8.26626
       O    -6.70692   11.57927    8.03939
      H1    -7.58258   11.76940    7.66301
       H   -12.47062   12.15561    9.50887
       O   -11.99593   11.68134   10.16339
      H1   -12.18844   10.72766   10.03091
       H   -13.82392   13.77034    9.52292
       O   -13.31698   13.74665    8.70452
      H1   -13.87651   13.35804    8.08341

