66
frame 10 | Written by MDAnalysis XYZWriter (release 2.4.3)
       H    -2.56933   16.90715   -1.30213
       O    -2.90654   17.09071   -0.38394
      H1    -2.50816   17.88493    0.00994
       H    -2.22606   13.16597    2.61038
       O    -2.08233   14.10652    2.66836
      H1    -2.93268   14.52987    2.57714
       H     2.09567   16.41296    1.35585
       O     1.37230   16.80818    1.85367
      H1     0.49664   16.54974    1.46150
       H    -2.58233   19.85620    3.69775
       O    -2.37506   18.96316    3.37809
      H1    -3.19068   18.50606    3.40193
       H     1.72339   16.51254   -1.40074
       O     1.48553   15.68588   -1.07092
      H1     0.74952   15.81462   -0.47314
       H    -0.98302   17.60210    4.14660
       O    -0.51542   17.03580    4.79325
      H1     0.32179   17.51164    5.02395
       H     0.44033   13.77866    6.05687
       O     0.75208   13.52533    6.95699
      H1     1.33167   12.78635    6.85203
       H    -0.27315   14.27826    3.86339
       O     0.35858   14.58629    4.51431
      H1     0.01341   15.52630    4.72580
       H     0.45113   12.80759    0.93776
       O     0.96775   12.06513    0.55762
      H1     1.48644   12.48852   -0.15575
       H    -5.42865   14.12269    2.19774
       O    -4.86352   14.77680    1.77300
      H1    -5.31783   15.60047    1.70292
       H    -5.52108   12.06524    3.58679
       O    -6.15539   12.35134    2.87124
      H1    -6.98082   11.93113    3.14092
       H    -4.43119   11.68795    0.14154
       O    -4.16782   10.75811   -0.02335
      H1    -3.24112   10.79247    0.11356
       H    -1.41853   15.06514    1.43664
       O    -0.96047   15.63226    0.79014
      H1    -1.69501   16.12666    0.34198
       H    -2.29284   13.63562    6.68043
       O    -1.94132   13.53282    7.57135
      H1    -0.95567   13.47810    7.53149
       H    -1.82339   10.98510    4.16917
       O    -1.69220   11.35225    3.26773
      H1    -1.95256   10.69651    2.57746
       H    -1.20316    9.70744    0.86473
       O    -1.34666   10.42001    0.25181
      H1    -0.47872   10.74406    0.04219
       H    -5.26398   13.39708   -1.23943
       O    -5.42565   13.23072   -0.27434
      H1    -5.05005   13.95143    0.17371
       H    -2.40483   10.75491    6.87741
       O    -2.46379   10.63233    5.96240
      H1    -3.15614   11.28601    5.66883
       H     0.79874    9.94231    4.18612
       O     0.71104   10.91509    4.16218
      H1    -0.21059   11.05860    3.87786
       H    -4.64334   17.09056    5.35230
       O    -4.53442   16.41769    6.07425
      H1    -5.35390   16.10194    6.38870
       H    -3.41251   15.31816    5.26289
       O    -3.06157   14.39875    5.18684
      H1    -2.50955   14.37542    4.44180
       H    -4.12274   13.04099    5.02986
       O    -4.44439   12.16962    4.84993
      H1    -5.06861   12.01192    5.60250

