66
frame 9 | Written by MDAnalysis XYZWriter (release 2.4.3)
       H    -8.90791    8.25889    6.38607
       O    -8.33665    7.55032    6.78540
      H1    -8.98290    7.13344    7.40673
       H   -13.25011   10.43496    6.66657
       O   -12.45193   10.45869    7.23711
      H1   -12.69201    9.98542    8.07176
       H   -11.66572    7.35533    8.55038
       O   -11.38485    6.52437    8.09062
      H1   -11.43112    6.67652    7.12123
       H    -9.74268    4.45677    4.78858
       O    -9.22393    4.55098    3.99218
      H1    -8.40266    3.98711    4.13021
       H   -11.25171    4.06188    6.66020
       O   -10.36166    3.75632    6.47596
      H1    -9.72956    4.14902    7.13550
       H    -8.72435    8.14993   10.23017
       O    -9.16947    8.84830   10.69178
      H1    -8.69021    8.99721   11.53603
       H   -11.10613    9.67529    6.36568
       O   -10.38074    9.27460    5.87198
      H1   -10.50672    9.43078    4.94344
       H    -9.12479    6.04404    3.15952
       O    -9.08003    6.97288    2.78496
      H1    -8.10599    7.24302    2.67320
       H   -10.92036    7.71841    5.53449
       O   -11.48499    6.85662    5.49039
      H1   -12.39601    7.25872    5.37200
       H    -8.31218    4.83465    9.00040
       O    -8.26470    3.99027    8.51486
      H1    -7.53718    4.06753    7.94813
       H    -5.83880    7.98464    5.15016
       O    -6.65064    7.65943    4.63864
      H1    -7.34981    7.56239    5.34488
       H    -5.65244   10.59334    3.98871
       O    -5.92348   10.34100    3.11379
      H1    -6.79492   10.73000    2.96538
       H    -5.52973    4.50961    8.28758
       O    -5.63373    5.27881    7.70540
      H1    -5.29696    5.05477    6.81190
       H    -5.54980    8.47761    7.53178
       O    -6.12727    8.64499    8.32576
      H1    -6.90324    8.09788    8.10082
       H    -9.29447    9.95430    3.15500
       O   -10.12602    9.43195    3.29686
      H1    -9.80516    8.50481    3.27107
       H    -9.00312    5.99149   10.67510
       O    -8.47819    6.32316    9.89424
      H1    -7.53869    6.14023   10.22682
       H   -12.34390    8.28791   10.18971
       O   -11.62770    8.71455    9.64834
      H1   -10.84737    8.74247   10.21763
       H    -9.11123   11.93283    7.87543
       O    -9.14744   12.02844    6.91068
      H1    -9.21518   11.13949    6.70650
       H    -9.27257   10.46218    9.90267
       O    -9.30544   11.37358    9.62530
      H1   -10.12808   11.79697    9.91308
       H    -6.81177   10.64386    8.26626
       O    -6.70692   11.57927    8.03939
      H1    -7.58258   11.76940    7.66301
       H    -3.92894    7.45702    6.74755
       O    -4.38132    7.99240    6.11517
      H1    -3.73676    8.73558    5.95303
       H    -4.57368   12.52060    5.99057
       O    -4.99490   11.67359    5.89849
      H1    -5.64470   11.58286    6.63807

