66
frame 10 | Written by MDAnalysis XYZWriter (release 2.4.3)
       H     6.63031    9.86380  -12.77899
       O     7.51538   10.13357  -12.40844
      H1     7.24656   10.47914  -11.47226
       H     9.25479   13.31579  -11.27726
       O     8.74647   13.55278  -12.03850
      H1     8.93036   12.98653  -12.81011
       H     5.42597   16.23432  -11.13703
       O     4.67601   16.55888  -11.70778
      H1     5.03665   17.19374  -12.31197
       H    13.34919   11.69299  -10.95822
       O    14.11381   12.04445  -11.44965
      H1    13.83542   12.92792  -11.65164
       H     9.26541   12.97452   -7.35559
       O    10.17175   13.33690   -7.29149
      H1    10.05692   14.20584   -6.93949
       H     5.13466   15.58060  -14.06731
       O     5.58535   14.79486  -14.38465
      H1     5.03224   14.54435  -15.12154
       H    10.40120   13.10446   -9.22638
       O    10.51127   12.89300  -10.14699
      H1     9.98094   12.13512  -10.30802
       H    11.57146   10.43135   -9.75002
       O    12.50499   10.62775   -9.68766
      H1    12.65184   11.13776   -8.92143
       H     8.77370   16.89556  -11.92321
       O     8.80386   16.34449  -12.72474
      H1     8.74268   15.48360  -12.37644
       H     9.85551   17.74453  -10.62758
       O     9.25373   18.41949  -10.95368
      H1     9.71532   19.16867  -11.33556
       H     7.77417   15.42175   -9.81806
       O     7.06384   15.25556  -10.45450
      H1     7.49522   14.66409  -11.05522
       H     5.73244   13.53883  -12.88047
       O     5.34936   13.04847  -12.11386
      H1     4.43341   13.30062  -12.18029
       H     9.87639   10.21958   -8.94962
       O     9.76671   10.21362   -9.88241
      H1     9.83877    9.28849  -10.17793
       H     9.32323   14.39922  -16.37439
       O     9.28717   13.40497  -16.48414
      H1     8.95280   13.00791  -15.62269
       H    13.32554   12.86953   -7.45461
       O    12.86106   12.04792   -7.22526
      H1    11.97102   12.43268   -6.98841
       H    11.02884   15.89098   -9.61166
       O    10.07295   16.19858   -9.61601
      H1     9.86614   16.57109   -8.74897
       H    11.25547   16.11922  -14.66929
       O    11.20029   16.47353  -13.82327
      H1    10.26885   16.40225  -13.54951
       H    11.96021   11.78209  -13.20578
       O    11.25079   12.39812  -13.04358
      H1    11.11347   12.36516  -12.09825
       H     6.87580   11.11402   -9.14335
       O     6.45498   11.07299  -10.01835
      H1     6.56002   11.93877  -10.35529
       H     7.45989   12.49628   -6.85271
       O     7.93199   11.95055   -7.46876
      H1     8.21825   11.16997   -6.99945
       H    11.80428   14.24896  -10.69162
       O    12.27694   15.06603  -10.85971
      H1    11.83655   15.45146  -11.60029
       H     9.77461   11.67517  -14.09125
       O     8.81325   11.59851  -14.37199
      H1     8.36780   11.07341  -13.68482

