66
frame 9 | Written by MDAnalysis XYZWriter (release 2.4.3)
       H    -6.67485   -4.29993    5.84976
       O    -7.57006   -3.90023    5.71530
      H1    -7.41151   -3.07405    5.25683
       H    -9.61234   -2.27103    2.08423
       O    -8.73077   -1.93231    2.27885
      H1    -8.83270   -0.98554    2.57188
       H    -6.84282   -0.54847    6.80603
       O    -6.40062   -0.06340    6.12605
      H1    -5.56355    0.21898    6.60809
       H   -11.24003    0.48878    3.24469
       O   -10.86930    1.00570    2.51744
      H1   -10.59721    0.34688    1.86735
       H    -2.32926    2.21486    4.64850
       O    -2.89625    2.71789    4.02689
      H1    -3.56960    2.11808    3.62136
       H   -12.09556   -0.50478    5.02914
       O   -11.18321   -0.56865    4.71920
      H1   -10.67048   -0.14296    5.45903
       H    -5.15203   -6.92504    3.96151
       O    -4.26605   -6.49231    3.77118
      H1    -4.45146   -5.99374    2.96762
       H    -4.29328    1.11760    1.59020
       O    -4.44818    0.50915    2.26433
      H1    -5.11561   -0.08752    1.91973
       H    -6.51924   -0.84366    4.19321
       O    -6.58353   -1.76457    3.93840
      H1    -7.25447   -1.81366    3.21752
       H    -6.90824    1.72546    5.71695
       O    -6.93684    2.55895    5.16975
      H1    -6.20903    3.22892    5.39470
       H   -10.04994    1.61384    6.65097
       O    -9.89457    0.71234    6.85164
      H1   -10.13430    0.64555    7.81312
       H    -4.61549   -1.31369   -0.70919
       O    -4.78450   -2.12432   -0.24046
      H1    -5.76418   -2.09876   -0.13979
       H    -7.61003    1.38568    3.37041
       O    -8.21387    0.66499    3.01105
      H1    -9.12223    1.04915    3.06519
       H    -4.20607   -0.33713    8.28005
       O    -3.95577    0.21079    7.50653
      H1    -3.56739    0.96835    7.94808
       H    -7.60013   -2.79384   -0.53628
       O    -7.48391   -1.79227   -0.37841
      H1    -7.99356   -1.72929    0.41492
       H    -3.08492   -1.98004    6.03445
       O    -3.83961   -2.30720    5.46543
      H1    -4.47754   -1.59474    5.30850
       H    -6.51646   -5.19140    2.81115
       O    -7.32991   -5.41503    3.21649
      H1    -7.40458   -4.84511    3.97060
       H    -8.73105   -1.78262    7.94774
       O    -7.86174   -1.47572    8.15006
      H1    -7.39719   -2.37110    8.22199
       H    -4.73964   -3.88927    5.79927
       O    -5.12333   -4.74653    6.04361
      H1    -5.03890   -5.44280    5.36786
       H    -1.29684   -0.39004    2.11208
       O    -1.48721    0.55535    2.36439
      H1    -2.45838    0.44725    2.41811
       H    -4.13130   -2.45664    3.16295
       O    -3.78635   -2.81875    2.41643
      H1    -4.31999   -2.49509    1.68285
       H    -4.73023   -5.28044    0.65607
       O    -4.87537   -5.17682    1.63570
      H1    -4.36556   -4.35786    1.91837

