66
frame 0 | Written by MDAnalysis XYZWriter (release 2.4.3)
       H     7.73431   -8.60206   -9.70137
       O     7.05881   -8.55430   -9.02330
      H1     6.37039   -7.96739   -9.40236
       H     7.89087  -11.07406   -1.73419
       O     8.79885  -11.31735   -1.82930
      H1     9.12918  -10.89808   -2.63756
       H     4.77700  -13.83214   -4.33661
       O     4.11594  -13.55291   -5.05938
      H1     3.32443  -13.74697   -4.58388
       H     7.72095  -17.23984   -4.54880
       O     7.26274  -16.45604   -4.84021
      H1     7.82517  -15.92743   -5.46192
       H     4.71188  -13.71760   -8.69506
       O     5.06034  -13.10630   -9.41982
      H1     5.31789  -12.23500   -9.06168
       H    12.15145  -12.85995   -8.98030
       O    11.36954  -13.04559   -8.44753
      H1    11.24680  -14.00128   -8.40814
       H     6.55876  -14.18608   -8.99247
       O     7.26456  -14.50269   -8.38229
      H1     7.74572  -15.15776   -8.86177
       H    10.04795  -10.56172   -7.54372
       O    10.62511   -9.78135   -7.49018
      H1    11.42834   -9.92666   -8.00907
       H     5.15087  -10.43541   -5.69121
       O     4.60413  -11.16414   -6.16073
      H1     4.64304  -12.04039   -5.61969
       H     6.14547  -15.38746   -2.22895
       O     5.67330  -15.08191   -3.05677
      H1     6.14046  -15.77021   -3.70066
       H     7.87174  -11.38705   -8.04243
       O     8.71828  -11.65966   -7.57299
      H1     9.12670  -12.18711   -8.24249
       H    12.27238  -10.03876   -6.03303
       O    12.98552  -10.15759   -5.37848
      H1    12.82779   -9.60710   -4.59702
       H     8.47118   -6.65930   -6.58142
       O     7.49132   -6.68194   -6.72388
      H1     7.33398   -7.24770   -7.47442
       H    11.90835  -13.99992   -4.67135
       O    11.80089  -14.08877   -5.66528
      H1    11.65455  -13.18978   -5.90883
       H     5.81415  -11.02313   -7.67579
       O     6.26086  -11.00560   -8.49798
      H1     6.36526  -10.08877   -8.73032
       H     4.97588  -15.90403   -9.18897
       O     4.69240  -15.58708   -8.31362
      H1     5.51860  -15.22259   -8.05386
       H     3.98732  -11.34817   -2.95743
       O     3.67967  -11.42099   -2.04900
      H1     3.17271  -10.60175   -1.88733
       H    10.31904   -7.77991   -6.23674
       O    10.25616   -6.83932   -6.32086
      H1    10.18809   -6.47575   -5.47015
       H     6.65492   -8.41937   -5.62537
       O     6.20592   -9.16776   -5.19673
      H1     6.81602   -9.87810   -4.93983
       H     8.68861  -14.71714   -6.96534
       O     8.97355  -14.89076   -6.11193
      H1     9.90951  -15.00268   -6.17374
       H    12.64965  -11.99803   -2.68089
       O    11.79578  -11.59370   -2.26651
      H1    11.52302  -12.42884   -1.82837
       H     8.17158  -11.65048   -5.78990
       O     7.77417  -11.53541   -4.89435
      H1     7.53936  -12.44614   -4.60398

