66
frame 9 | Written by MDAnalysis XYZWriter (release 2.4.3)
       H     6.49430    3.64593    3.98130
       O     6.28213    2.89907    4.54392
      H1     7.04383    2.71155    5.11698
       H     8.12616    8.82060    3.96581
       O     8.79948    8.27945    3.51072
      H1     8.28479    8.13375    2.72165
       H     5.42766    3.47760    5.87047
       O     4.97474    3.79839    6.68962
      H1     5.65938    4.35325    7.15034
       H     8.17639    7.27899    4.73320
       O     8.12606    6.50857    5.34676
      H1     9.03670    6.28473    5.64967
       H     7.16447    9.30297    1.39736
       O     7.33456    8.32952    1.36133
      H1     7.95967    8.11023    0.68630
       H    12.62435    7.28262    6.11833
       O    13.05912    7.85191    5.45864
      H1    12.32584    8.44403    5.26466
       H    10.92978    5.77787    4.81693
       O    10.69289    5.57446    5.72642
      H1    11.23592    4.77501    6.00365
       H     7.35683    5.66319    4.03650
       O     6.85540    5.33541    3.24212
      H1     7.43746    5.53901    2.50083
       H     7.04813    7.48610    6.49139
       O     6.59496    7.96467    7.21779
      H1     6.36249    8.82953    6.87082
       H    10.73615   10.30913    5.68132
       O    11.21890    9.94556    4.93877
      H1    10.51395    9.67049    4.35085
       H     5.64396    8.12014    0.91855
       O     4.78754    7.97698    0.49416
      H1     4.15600    7.93379    1.21012
       H     8.98768    7.78117   -1.21379
       O     9.33890    7.74726   -0.30120
      H1     9.51899    6.84215   -0.06254
       H     6.22736    6.40554    8.00260
       O     6.14320    5.60930    8.53716
      H1     5.39729    5.75913    9.08292
       H    12.21663    4.00332    0.98482
       O    11.44088    4.02896    1.56854
      H1    11.44955    4.96282    1.85837
       H     6.30428   10.13196    3.67514
       O     6.62241    9.66893    4.49209
      H1     5.76133    9.22500    4.70251
       H    10.51993    7.85549    8.15431
       O    11.30678    7.46122    7.75196
      H1    11.12348    6.61559    7.36493
       H    10.43886   11.29741    7.58040
       O     9.63124   11.19417    7.04666
      H1     9.52556   11.97052    6.44442
       H     7.69556   10.65552    7.70893
       O     6.85352   11.05070    7.74385
      H1     6.90320   11.73722    8.41118
       H    10.77132    7.15835    2.63304
       O    11.51490    6.56135    2.61841
      H1    12.33800    7.00775    2.55237
       H     7.39247   11.28790    1.57761
       O     6.59229   10.92153    1.96484
      H1     5.84671   11.11882    1.30234
       H     4.36723    6.74714    4.80237
       O     4.88854    7.29848    4.15821
      H1     5.50175    6.68563    3.79048
       H     8.44907    4.65840    0.61813
       O     8.90279    5.31083    1.18132
      H1     9.82340    5.05557    1.16296

