66
frame 10 | Written by MDAnalysis XYZWriter (release 2.4.3)
       H     4.68645   -1.69241   12.70152
       O     4.66815   -2.32202   11.95377
      H1     5.14037   -1.88141   11.21381
       H    -1.36131    3.23905   13.59324
       O    -1.13900    3.12869   14.50968
      H1    -0.23808    2.76166   14.50359
       H     2.22806   -1.24648   19.15606
       O     3.02700   -1.61326   18.72572
      H1     3.08867   -2.55903   18.95662
       H    -1.36719   -0.58261   12.72467
       O    -1.63471   -0.87954   13.61027
      H1    -2.07727   -0.15416   14.01119
       H     4.79509   -4.34003   16.24699
       O     5.02783   -3.64655   15.53311
      H1     6.00496   -3.76498   15.30447
       H     5.22714   -0.71316   17.11523
       O     5.41578   -1.05119   16.24325
      H1     5.19805   -2.00700   16.03428
       H     1.03303    1.04848   15.99168
       O     1.11479    1.97649   15.73604
      H1     0.76601    2.52995   16.43313
       H     1.97656    0.96788   10.15602
       O     1.69562    0.25217   10.76269
      H1     2.60255   -0.08503   11.06024
       H     0.91128   -3.20694   14.66984
       O    -0.06070   -2.97651   14.60438
      H1    -0.18191   -2.04040   14.42592
       H    -0.19353   -2.61691   10.95795
       O     0.36991   -2.66136   11.75491
      H1    -0.16983   -3.04220   12.42215
       H    -1.98160   -3.37598   15.36769
       O    -2.67181   -3.88807   15.72408
      H1    -2.57495   -4.65859   15.13879
       H     3.25575   -0.16564   13.80225
       O     4.19954   -0.12782   13.95884
      H1     4.31385   -0.31539   14.90287
       H     1.68262   -0.49681   15.36184
       O     1.24061   -0.59423   16.22608
      H1     1.96729   -0.65836   16.88311
       H     6.37555    1.40499   14.30463
       O     6.09304    2.31253   14.41796
      H1     5.24683    2.33921   14.88331
       H    -1.11628    2.66264   18.35866
       O    -0.16425    2.76545   18.28694
      H1     0.22674    1.90344   18.57548
       H     2.99228    2.47385   15.91248
       O     3.86783    2.79795   16.15889
      H1     3.94258    2.83504   17.06940
       H     3.51723   -3.69925   14.69872
       O     2.57329   -3.89402   14.46725
      H1     2.44823   -4.86542   14.55640
       H     0.21644   -4.18386   16.21133
       O     0.11698   -5.08989   16.57957
      H1     0.34394   -5.70018   15.89127
       H    -1.14052   -0.67189   10.68824
       O    -1.06380    0.05861   11.26493
      H1    -0.12555    0.23215   11.10662
       H     1.43044   -1.23508   12.81695
       O     1.56421   -0.50630   13.44107
      H1     1.47536    0.27028   12.86007
       H     4.54702   -0.57875   18.84384
       O     5.23995    0.05138   18.66315
      H1     5.76896    0.06723   19.45593
       H     3.55187    2.20723   12.00494
       O     2.70836    2.34223   12.46592
      H1     2.70079    3.32164   12.61540

