66
frame 10 | Written by MDAnalysis XYZWriter (release 2.4.3)
       H   -19.61954    4.83303   -6.38889
       O   -19.13548    4.30221   -5.74017
      H1   -19.02993    3.39961   -6.11880
       H   -18.23528   12.32867   -8.96235
       O   -18.35041   11.35197   -8.77259
      H1   -19.24938   11.11338   -9.03627
       H   -17.88019    4.19338   -9.90632
       O   -17.91926    5.12610  -10.02385
      H1   -18.54536    5.35532  -10.73055
       H   -18.09175    1.93165   -9.52496
       O   -17.17869    1.93496   -9.81937
      H1   -16.90939    1.04747   -9.75755
       H   -14.04100    8.23018  -11.49139
       O   -13.62178    8.75859  -12.17851
      H1   -13.77490    9.70612  -12.07450
       H   -11.96201    8.94817   -7.22143
       O   -12.79024    8.59405   -7.60424
      H1   -13.43317    9.21132   -7.31357
       H   -19.02254    9.01522   -5.90709
       O   -19.96162    8.94618   -5.71604
      H1   -20.13560    8.31408   -5.07676
       H   -14.46708    6.74235   -9.21681
       O   -15.07602    7.41670   -9.64873
      H1   -15.45374    6.96541  -10.41680
       H   -13.79466    5.69088   -7.45389
       O   -13.84054    5.43750   -8.37295
      H1   -12.95262    5.52342   -8.74296
       H   -17.06047    9.50697   -3.59594
       O   -16.77011    8.69743   -4.04964
      H1   -17.28639    8.56302   -4.88338
       H   -13.04185    2.41755   -7.23012
       O   -13.59663    2.54488   -8.04634
      H1   -13.96787    3.44754   -7.94912
       H   -17.63275    7.46701   -7.34352
       O   -16.99735    7.71299   -6.66537
      H1   -16.43143    8.39279   -6.97141
       H   -16.62171    1.73105   -7.79926
       O   -16.58396    1.47312   -6.83534
      H1   -16.04910    0.64093   -6.84017
       H   -17.30866    5.63806   -3.29039
       O   -16.69224    4.96968   -3.42442
      H1   -16.55505    4.89631   -4.43594
       H   -15.64685    6.23273  -12.52887
       O   -16.38633    6.60865  -11.94827
      H1   -16.77547    5.87125  -11.49957
       H   -17.67531   11.39253   -6.90428
       O   -17.46638   11.56071   -5.97476
      H1   -16.64991   11.11769   -5.81008
       H   -16.29677    5.67980   -6.37124
       O   -16.35957    4.74612   -6.23801
      H1   -17.32669    4.61196   -6.28896
       H   -17.33224   10.25258   -9.94578
       O   -16.96536    9.83369  -10.78280
      H1   -17.06239    8.87467  -10.74908
       H   -19.39145    8.20228   -8.93223
       O   -18.95909    7.39109   -8.64809
      H1   -18.55004    6.86692   -9.33924
       H   -19.07922    7.15700  -13.96961
       O   -18.18847    7.03603  -14.26790
      H1   -17.67801    7.10945  -13.41882
       H   -13.40321    6.97921   -6.19341
       O   -13.61981    6.20656   -5.66412
      H1   -14.42422    6.60142   -5.25125
       H   -15.36877    9.18953   -8.99491
       O   -15.47594    9.81457   -8.28288
      H1   -15.38934   10.71399   -8.54272

