66
frame 9 | Written by MDAnalysis XYZWriter (release 2.4.3)
       H   -17.17060   -0.18091  -10.22340
       O   -16.23899   -0.29118  -10.48962
      H1   -15.70944    0.23558   -9.90501
       H   -19.15194   -2.61585  -12.18964
       O   -19.40277   -2.87780  -13.08835
      H1   -19.82034   -3.74892  -13.10214
       H   -17.38869   -1.59977  -14.12306
       O   -16.80389   -1.00454  -13.65978
      H1   -16.33499   -1.64377  -13.14161
       H   -15.67685   -1.95208  -11.46611
       O   -15.16549   -2.69776  -11.82308
      H1   -15.74527   -3.24346  -12.42395
       H   -15.21422   -1.85833  -16.16618
       O   -14.55886   -1.12940  -16.13115
      H1   -14.81682   -0.61214  -15.36892
       H   -17.62162   -3.97349  -13.60521
       O   -16.74138   -4.22804  -13.86063
      H1   -16.68680   -5.09088  -13.36600
       H   -17.96552   -1.46996  -16.18405
       O   -18.78948   -1.40129  -15.60264
      H1   -18.97109   -2.31701  -15.26736
       H   -20.23148   -2.99457  -10.56587
       O   -19.27713   -2.89867  -10.39796
      H1   -18.89985   -3.75314  -10.08591
       H   -16.98177    0.53073  -16.89571
       O   -17.56223    0.26987  -17.60188
      H1   -17.06713    0.19568  -18.45345
       H   -18.54521   -6.99318  -15.55740
       O   -18.89717   -6.46877  -16.27814
      H1   -19.60545   -6.96267  -16.71137
       H   -13.18434   -1.01607  -12.91653
       O   -12.31781   -1.35263  -13.15785
      H1   -11.73224   -0.60077  -13.01211
       H   -14.96101    0.19036  -19.26804
       O   -14.12330    0.06859  -18.78462
      H1   -14.35069   -0.34191  -17.92600
       H   -15.12948   -3.72393  -17.88832
       O   -14.41320   -3.99492  -18.41216
      H1   -14.43432   -3.43998  -19.14671
       H   -17.96361    1.99400  -12.31632
       O   -18.14793    1.49491  -13.15652
      H1   -17.75104    0.59271  -13.27400
       H   -14.18354   -5.64881  -17.70248
       O   -14.19800   -6.56284  -17.52585
      H1   -13.26938   -6.77504  -17.81450
       H   -17.02390   -3.66315  -16.98965
       O   -16.33901   -3.19992  -16.40824
      H1   -16.33120   -3.78531  -15.64461
       H   -19.34342   -3.71715  -18.03847
       O   -18.89518   -4.57423  -18.35789
      H1   -18.80548   -5.21821  -17.63379
       H   -12.45653   -4.03081  -17.54711
       O   -11.60802   -3.98917  -17.11919
      H1   -10.90906   -3.89937  -17.84072
       H   -11.39446   -1.98713  -16.81420
       O   -11.23165   -1.11166  -16.46774
      H1   -12.14723   -0.77763  -16.27418
       H   -15.70673   -7.15002  -18.21797
       O   -16.43678   -7.06492  -18.93993
      H1   -16.35423   -6.17856  -19.19362
       H   -16.93660    1.67506  -14.52754
       O   -16.30886    1.64131  -15.26405
      H1   -16.18434    2.58948  -15.53770
       H   -14.74700    1.51540  -14.21352
       O   -13.88098    1.30627  -13.76434
      H1   -13.42503    2.18225  -13.85603

