66
frame 10 | Written by MDAnalysis XYZWriter (release 2.4.3)
       H   -18.35090    0.92421   10.55050
       O   -19.15291    0.68993   11.04628
      H1   -19.33939    1.40357   11.64992
       H   -20.10567    5.20435   11.37926
       O   -19.42355    5.33150   12.06541
      H1   -19.18827    4.48952   12.51031
       H   -15.10677   -5.74277   14.98851
       O   -14.93403   -4.94273   14.50614
      H1   -14.74874   -4.23385   15.14072
       H   -16.80313    2.75467    7.02778
       O   -17.45951    2.06928    7.21621
      H1   -18.15602    2.57216    7.64861
       H   -13.55253    2.32042   10.34094
       O   -12.65189    2.35076   10.00378
      H1   -12.44483    1.57249    9.49425
       H   -15.53208   -3.53186   13.20667
       O   -15.63844   -2.81286   12.58448
      H1   -16.46495   -2.39294   12.77455
       H   -15.70857    2.80532   12.85986
       O   -16.03471    3.16460   13.70079
      H1   -15.64352    4.03125   13.79024
       H   -18.94408    2.65240   13.91475
       O   -18.56914    2.62710   13.03213
      H1   -17.64439    2.78491   13.08006
       H   -16.28661   -3.90975   11.06478
       O   -16.22428   -4.17471   10.10947
      H1   -15.29350   -4.13016    9.94983
       H   -14.85945    1.03928   11.99411
       O   -14.97085    1.90036   11.52805
      H1   -15.79514    1.92731   10.98152
       H   -16.98963    1.30051    8.57615
       O   -16.74073    1.26817    9.56311
      H1   -15.91246    0.72599    9.53630
       H   -18.47716   -2.43443   15.58467
       O   -18.64583   -3.39993   15.48178
      H1   -18.84138   -3.71776   16.43108
       H   -13.15340   -2.34427   11.88120
       O   -13.15466   -2.31006   10.90864
      H1   -13.84933   -1.74488   10.58343
       H   -14.77685   -1.17525   12.85154
       O   -14.37161   -0.32536   13.03591
      H1   -13.49472   -0.43394   12.56083
       H   -19.28668   -1.79038   17.56244
       O   -19.08685   -0.95895   17.22021
      H1   -19.62741   -0.36887   17.76285
       H   -14.07590   -0.15235    8.81566
       O   -14.74719   -0.34027    9.49997
      H1   -15.42930   -0.85324    9.08399
       H   -14.23287   -3.39976   17.71359
       O   -14.36151   -3.34209   16.76371
      H1   -14.81203   -2.48392   16.63954
       H   -18.29899   -0.50344   12.08383
       O   -17.91547   -1.16206   12.62232
      H1   -17.78111   -0.68638   13.46504
       H   -15.09252    4.36668   16.34126
       O   -14.51978    3.69730   15.97078
      H1   -14.95498    3.30647   15.24940
       H   -16.58251   -0.52777   15.31989
       O   -17.50642   -0.36509   15.16223
      H1   -17.99850   -0.57815   15.97551
       H   -14.92893    0.13902   16.42130
       O   -14.91535   -0.69582   15.87578
      H1   -14.60403   -0.39689   15.03519
       H   -17.95572   -1.83075    8.40048
       O   -16.98832   -2.02893    8.38966
      H1   -16.95110   -2.71272    9.07832

