69
frame 1 | Written by MDAnalysis XYZWriter (release 2.4.3)
       H     4.37944  -16.36421  -10.07738
       O     4.94327  -16.99947  -10.54049
      H1     5.85630  -16.85221  -10.27430
       H     1.89004  -18.92018   -2.79891
       O     2.54178  -19.34829   -2.19950
      H1     2.43249  -18.82866   -1.36327
       H    -1.27084  -18.69174   -7.41947
       O    -0.87623  -19.16265   -8.20856
      H1    -1.57005  -19.82533   -8.31725
       H     5.84543  -14.00107   -5.06470
       O     5.11721  -13.41055   -5.15955
      H1     4.37483  -13.97383   -5.22241
       H     8.12491  -17.55347  -10.11194
       O     8.52678  -16.76863  -10.46246
      H1     8.07770  -16.58094  -11.31420
       H     7.88922  -18.04626   -5.00804
       O     7.40671  -17.26034   -5.35771
      H1     7.96764  -16.56873   -5.65731
       H     2.54928  -17.79505  -10.08898
       O     2.10387  -17.01671  -10.45561
      H1     2.59916  -16.70075  -11.25520
       H     7.26526  -13.79276   -9.34377
       O     7.10793  -14.65955   -8.93320
      H1     7.71963  -15.31999   -9.28775
       H     5.35598  -10.53540   -6.04118
       O     4.70983  -11.02517   -6.62718
      H1     4.91334  -11.93747   -6.44236
       H     6.89264  -15.51149   -2.52382
       O     6.22998  -15.86393   -3.21370
      H1     6.74365  -16.37587   -3.76367
       H     0.66647  -18.56492   -4.71454
       O     0.35145  -18.98104   -3.94914
      H1    -0.20025  -18.38962   -3.46283
       H     7.25122  -19.39912   -9.64316
       O     7.75257  -18.88273   -9.03809
      H1     7.12775  -18.41542   -8.51062
       H     2.42215  -13.55804  -11.16895
       O     2.53571  -13.55622  -10.22743
      H1     2.87853  -12.68182  -10.06571
       H     0.46424  -17.21515  -10.43104
       O    -0.46436  -16.98308  -10.22207
      H1    -0.74353  -17.78351   -9.74526
       H     3.45770  -17.61302   -2.54694
       O     3.61358  -16.63387   -2.48868
      H1     4.51179  -16.51069   -2.67120
       H     0.87674  -18.92784   -7.44720
       O     1.72833  -18.95230   -6.99874
      H1     2.22011  -18.11669   -7.05278
       H     3.10677  -15.65257   -3.90141
       O     2.67422  -15.33106   -4.65173
      H1     2.05790  -14.70670   -4.29985
       H     1.02813  -15.95496   -7.55388
       O     0.09033  -15.64539   -7.69043
      H1    -0.19932  -16.08384   -8.48737
       H     3.82850  -13.81582   -8.73634
       O     4.47426  -13.91498   -8.04048
      H1     5.31298  -14.09740   -8.49777
       H     3.59828  -16.07276   -7.79037
       O     2.99099  -16.59973   -7.23223
      H1     2.95142  -16.00456   -6.48019
       H     4.65473  -12.57044   -3.56309
       O     4.19273  -12.45448   -2.68454
      H1     3.31291  -12.07984   -2.90417
       H     7.94568  -14.07581   -6.59951
       O     8.00021  -14.16873   -5.67730
      H1     8.92770  -14.08798   -5.55626
       H     4.42631  -17.60446   -6.55573
       O     5.11047  -18.30836   -6.56231
      H1     5.82636  -17.79436   -6.17016

