69
frame 2 | Written by MDAnalysis XYZWriter (release 2.4.3)
       H     0.68629  -11.84506   -6.62348
       O     0.11390  -12.39833   -7.15642
      H1    -0.42586  -12.96335   -6.55831
       H    -1.25482  -18.07521   -7.15319
       O    -0.79074  -18.90686   -7.31441
      H1    -1.31073  -19.29806   -8.04000
       H     3.20235  -11.16543   -5.63843
       O     2.25214  -11.15505   -5.82284
      H1     1.85698  -11.65464   -5.11043
       H    -4.21458  -18.41156   -5.12767
       O    -3.28276  -18.75073   -4.95786
      H1    -2.69299  -18.26530   -5.53005
       H    -1.87558  -14.44857   -5.09093
       O    -1.65587  -13.55874   -5.32020
      H1    -2.06330  -12.94134   -4.73009
       H     0.04199  -13.31437   -4.39581
       O     0.86350  -12.90233   -4.16367
      H1     0.49532  -12.36320   -3.42647
       H    -6.14921  -14.99040   -7.19576
       O    -6.90796  -15.51360   -7.54721
      H1    -7.31105  -15.07957   -8.28998
       H    -3.22251  -11.15315   -2.90740
       O    -2.78297  -11.21102   -3.79236
      H1    -2.88126  -10.34661   -4.18822
       H    -4.24134  -13.78349   -6.59700
       O    -4.54562  -14.65834   -6.32612
      H1    -4.74129  -14.61366   -5.38126
       H    -4.68157  -14.83881   -0.71223
       O    -4.08661  -14.33484   -1.30469
      H1    -3.27969  -14.89514   -1.38742
       H    -4.18636  -13.52261  -10.36832
       O    -3.32240  -13.13108  -10.15228
      H1    -3.44225  -12.85324   -9.21934
       H    -0.81015  -15.78391   -1.17533
       O    -1.76030  -15.84644   -1.06274
      H1    -2.06561  -16.73132   -1.26897
       H    -2.51493  -15.49076   -6.64149
       O    -1.82919  -16.14291   -6.39551
      H1    -1.10328  -15.82636   -6.88349
       H    -3.03246  -12.16604   -7.12745
       O    -3.85610  -12.47637   -7.51601
      H1    -4.47140  -11.72072   -7.54410
       H    -0.87200  -10.83516   -8.01544
       O    -1.70948  -10.39305   -7.76376
      H1    -1.73107  -10.16668   -6.81348
       H    -6.14858  -14.10463   -3.44446
       O    -5.42674  -14.66655   -3.59309
      H1    -4.86963  -14.51828   -2.77513
       H     0.77177  -13.86989   -1.32861
       O     1.11639  -14.59566   -0.71955
      H1     1.78330  -15.12504   -1.23385
       H     3.18809  -15.18043   -3.58254
       O     3.32402  -14.71348   -4.38275
      H1     2.55405  -14.13351   -4.42902
       H    -1.55301   -8.30949   -5.55794
       O    -2.17723   -8.66812   -4.97450
      H1    -2.81672   -7.92820   -4.87678
       H     1.29982  -15.54723   -7.54409
       O     0.41989  -15.52837   -7.95165
      H1     0.36788  -16.20164   -8.63962
       H     1.86354  -13.49917  -10.37705
       O     1.00123  -13.93490  -10.42814
      H1     0.70006  -14.29720   -9.56330
       H     0.02809  -10.08435   -2.87880
       O    -0.02968   -9.29626   -3.49556
      H1    -0.93044   -9.21926   -3.91729
       H     0.07833  -11.08320   -0.96525
       O     0.67133  -11.49561   -1.71041
      H1     1.54121  -11.13231   -1.56059

