69
frame 1 | Written by MDAnalysis XYZWriter (release 2.4.3)
       H    14.63501  -12.81357    4.15199
       O    13.75875  -12.66009    3.66168
      H1    13.24280  -13.47531    3.81306
       H     9.53336  -12.79685   -0.05726
       O     8.58669  -12.99882    0.10646
      H1     8.17236  -12.14437   -0.16314
       H    11.31032  -15.15302    3.33131
       O    11.59068  -14.71504    4.14551
      H1    11.98705  -15.46944    4.56782
       H     9.23054  -14.31141    6.30247
       O    10.13057  -14.46885    6.56883
      H1    10.58716  -14.48116    5.70595
       H     8.92416  -15.84666    2.17630
       O     9.67913  -16.06101    2.67546
      H1     9.29395  -16.63384    3.37757
       H     7.97089  -14.44104   -0.77713
       O     7.55795  -15.30193   -0.64819
      H1     8.32668  -15.89546   -0.40367
       H     8.70829  -18.58929   -0.77739
       O     8.39174  -18.34914    0.11642
      H1     7.45755  -18.11356   -0.05712
       H     5.80513  -11.81606    2.00693
       O     5.64232  -12.53635    2.62549
      H1     5.80702  -13.29045    2.08969
       H    12.13266  -13.21676    0.39404
       O    11.44279  -13.66877   -0.17864
      H1    11.30520  -14.55270    0.17815
       H     4.66406  -17.62042    2.43721
       O     4.86227  -16.91775    1.86625
      H1     5.61166  -16.30991    2.10128
       H     7.70859  -14.56132    2.63442
       O     7.08979  -15.09418    2.09110
      H1     7.17030  -14.86506    1.11013
       H     9.94620  -18.06662    7.32743
       O     9.20961  -18.67100    7.64130
      H1     8.85595  -18.22435    8.42787
       H     3.94981  -16.68038    5.53172
       O     3.44575  -17.39278    5.94699
      H1     2.50526  -17.22141    5.71421
       H    10.53705  -17.20475   -0.59280
       O    10.64726  -16.48360    0.06863
      H1    10.54670  -16.95342    0.84561
       H    13.45303  -19.14784    1.13901
       O    13.88896  -18.31870    1.02852
      H1    14.89614  -18.43440    1.03948
       H    14.61698  -17.88662    4.45196
       O    15.12528  -18.26355    5.17677
      H1    14.50055  -18.24228    5.94091
       H     7.93079  -13.51895    4.66337
       O     7.68699  -14.11809    5.40679
      H1     7.34873  -14.89051    4.96366
       H     6.18652  -18.16001    6.74567
       O     6.40210  -17.21255    6.58479
      H1     6.87579  -17.18835    5.73721
       H    13.67015  -17.33221    2.78689
       O    13.37816  -16.92298    3.66840
      H1    14.18056  -16.27388    3.84944
       H     8.99422  -11.93848    3.24185
       O     8.95211  -12.90128    3.21066
      H1     9.14631  -13.16086    2.29458
       H     8.37768  -17.99929    4.64170
       O     8.36910  -17.00338    4.80320
      H1     8.76958  -16.82487    5.65012
       H    10.94162  -16.13562    7.07525
       O    11.23266  -17.03471    6.93340
      H1    12.04953  -17.18672    7.35416
       H     6.05397  -14.28872    6.73766
       O     5.52456  -14.85931    7.27718
      H1     5.90505  -15.75484    7.13406

