69
frame 1 | Written by MDAnalysis XYZWriter (release 2.4.3)
       H    -4.59966   -2.18106  -15.71522
       O    -3.81750   -2.74246  -15.66023
      H1    -3.60329   -2.86605  -14.71132
       H     1.63537   -6.51643  -12.62825
       O     1.31823   -5.58467  -12.83881
      H1     0.68698   -5.67087  -13.60381
       H     3.49414   -5.64385  -18.63561
       O     4.07461   -6.08974  -19.27621
      H1     4.09389   -5.46965  -19.99704
       H    -1.61506   -2.73425  -12.58427
       O    -1.72565   -2.78002  -13.52309
      H1    -1.50213   -3.65427  -13.83001
       H     1.15372   -1.62316  -15.99036
       O     1.24631   -1.74829  -16.96508
      H1     0.64831   -1.12452  -17.34002
       H     2.17538   -3.00055  -11.71715
       O     2.58703   -3.23877  -12.58575
      H1     2.13609   -4.06831  -12.79864
       H    -3.42979   -5.56810  -17.01199
       O    -4.27761   -5.12027  -16.88200
      H1    -4.14750   -4.22623  -16.47200
       H     0.08709   -0.31868  -13.31981
       O    -0.44196    0.49456  -13.19338
      H1    -1.34141    0.23365  -12.77504
       H    -0.74816   -9.19283  -14.79802
       O    -1.21749   -8.41573  -14.42961
      H1    -1.05318   -8.44961  -13.46195
       H     2.10490   -9.04013  -19.56897
       O     2.07225   -8.12482  -19.84335
      H1     2.95705   -7.81164  -19.50879
       H    -2.40404    1.22392  -19.91999
       O    -2.28845    0.25006  -19.86388
      H1    -2.27878    0.01017  -18.92778
       H     1.46533   -2.30365  -13.61969
       O     0.86976   -1.79264  -14.20238
      H1    -0.01781   -2.12092  -14.05831
       H    -1.41393    0.08762  -16.18378
       O    -1.14194    1.01512  -15.95509
      H1    -0.65998    0.95214  -15.13787
       H    -1.48205   -2.05552  -17.88637
       O    -1.96544   -1.36575  -17.44733
      H1    -2.64390   -1.86215  -16.92280
       H    -4.42342   -5.77965  -15.26094
       O    -4.44297   -5.93124  -14.30451
      H1    -5.33996   -5.78997  -14.05841
       H     2.89859   -7.16654  -15.50699
       O     2.10704   -7.40705  -15.98608
      H1     1.51884   -6.68107  -15.98025
       H    -5.13936   -5.46353  -18.15009
       O    -5.78852   -5.84286  -18.83294
      H1    -5.30108   -6.02734  -19.66017
       H     2.73080   -0.92292  -17.14032
       O     3.49510   -0.38927  -16.97241
      H1     3.24448    0.15210  -16.20033
       H     1.03587   -6.89711  -19.15794
       O     0.54257   -6.17455  -18.70200
      H1     0.76188   -5.44057  -19.28158
       H     0.27273   -3.12381  -17.01407
       O    -0.14593   -3.99721  -17.10038
      H1     0.53194   -4.56638  -17.52023
       H     2.56643   -3.17018  -17.34008
       O     3.14738   -3.97010  -17.22500
      H1     4.03382   -3.53627  -17.41908
       H    -2.47829   -7.63446  -18.18473
       O    -2.26225   -6.72071  -17.86135
      H1    -1.32278   -6.60477  -18.05409
       H    -1.16309   -6.21943  -14.52201
       O    -0.76672   -5.32765  -14.46094
      H1    -0.59776   -5.12983  -15.41749

