69
frame 10 | Written by MDAnalysis XYZWriter (release 2.4.3)
       H   -12.42898    6.17175   -4.42861
       O   -11.54648    6.21144   -4.01237
      H1   -11.78104    5.92081   -3.17857
       H   -11.99148    2.61696   -4.98882
       O   -12.01496    2.17957   -5.82970
      H1   -11.30136    1.60125   -5.80740
       H   -17.88019    4.19338   -9.90632
       O   -17.91926    5.12610  -10.02385
      H1   -18.54536    5.35532  -10.73055
       H    -9.77531    6.19734   -7.32861
       O    -9.49037    5.93659   -8.18777
      H1    -9.26450    4.97941   -8.12430
       H   -10.09000    3.87480   -5.85567
       O    -9.83482    4.74277   -5.50699
      H1   -10.43314    5.07467   -4.81789
       H   -13.36114    1.40442  -10.64924
       O   -12.85622    2.22252  -10.64361
      H1   -12.94742    2.61421   -9.77156
       H   -14.04100    8.23018  -11.49139
       O   -13.62178    8.75859  -12.17851
      H1   -13.77490    9.70612  -12.07450
       H   -13.03065    0.74065   -8.85816
       O   -13.34507   -0.07365   -9.21229
      H1   -12.51096   -0.44356   -9.48754
       H   -11.96201    8.94817   -7.22143
       O   -12.79024    8.59405   -7.60424
      H1   -13.43317    9.21132   -7.31357
       H   -12.21386    8.83741   -9.32029
       O   -11.91943    8.69926  -10.20536
      H1   -12.65519    8.90445  -10.77173
       H   -10.62367    5.29984  -11.35769
       O   -10.48610    4.67846  -12.13447
      H1   -11.39452    4.38631  -12.37757
       H   -16.25649    1.94875   -4.19731
       O   -15.39796    2.21214   -4.49013
      H1   -15.66019    2.40780   -5.39023
       H   -14.46708    6.74235   -9.21681
       O   -15.07602    7.41670   -9.64873
      H1   -15.45374    6.96541  -10.41680
       H   -13.79466    5.69088   -7.45389
       O   -13.84054    5.43750   -8.37295
      H1   -12.95262    5.52342   -8.74296
       H   -13.04185    2.41755   -7.23012
       O   -13.59663    2.54488   -8.04634
      H1   -13.96787    3.44754   -7.94912
       H   -11.72978    6.85795   -9.98371
       O   -11.51425    5.91743   -9.85122
      H1   -10.75208    5.97180   -9.25695
       H   -17.63275    7.46701   -7.34352
       O   -16.99735    7.71299   -6.66537
      H1   -16.43143    8.39279   -6.97141
       H   -16.62171    1.73105   -7.79926
       O   -16.58396    1.47312   -6.83534
      H1   -16.04910    0.64093   -6.84017
       H   -15.64685    6.23273  -12.52887
       O   -16.38633    6.60865  -11.94827
      H1   -16.77547    5.87125  -11.49957
       H   -13.78086    4.30737  -13.19816
       O   -13.03134    3.73071  -12.96134
      H1   -13.22850    3.29368  -12.10543
       H   -16.29677    5.67980   -6.37124
       O   -16.35957    4.74612   -6.23801
      H1   -17.32669    4.61196   -6.28896
       H   -13.40321    6.97921   -6.19341
       O   -13.61981    6.20656   -5.66412
      H1   -14.42422    6.60142   -5.25125
       H   -15.36877    9.18953   -8.99491
       O   -15.47594    9.81457   -8.28288
      H1   -15.38934   10.71399   -8.54272

