69
frame 1 | Written by MDAnalysis XYZWriter (release 2.4.3)
       H     9.02527    5.11580   10.87729
       O     8.89260    5.96507   10.47235
      H1     8.36253    6.57116   10.95142
       H     5.56383    3.50708   10.56286
       O     4.69198    3.36585   10.99112
      H1     4.69938    2.50897   11.50292
       H    10.05315    4.63983   14.30268
       O     9.60380    5.47959   14.29173
      H1     8.99957    5.25491   13.57130
       H     6.34214    4.69798   17.70538
       O     5.77345    5.33073   18.08722
      H1     5.42233    5.91051   17.43363
       H     3.72409    6.78829   16.65554
       O     4.50595    7.35951   16.70661
      H1     4.22008    8.30643   16.72086
       H     3.55098    2.50350   14.18371
       O     4.46260    2.08819   14.18991
      H1     4.71073    2.17108   15.12537
       H     5.18829    2.28568   17.44388
       O     5.65587    1.90597   16.62849
      H1     6.53241    1.57253   16.81135
       H    10.02382    8.05324   15.34149
       O     9.67571    8.86938   15.05939
      H1     8.87566    8.73898   14.50178
       H     5.62765    7.02075   15.41622
       O     6.05811    6.51764   14.67757
      H1     5.45646    5.98629   14.16152
       H     4.27266   10.09803   15.74929
       O     3.89265    9.97710   16.64622
      H1     4.31970   10.57948   17.27711
       H     6.69754    2.68631   13.34862
       O     6.99112    2.26296   12.56417
      H1     6.24508    1.64514   12.24939
       H     8.30104    4.47676   15.38271
       O     7.39341    4.17597   15.58944
      H1     6.88193    4.91912   15.29420
       H     1.41790    5.51182   13.21730
       O     1.70943    6.39483   13.53472
      H1     1.93247    6.17665   14.43259
       H     1.70320    6.09798   16.99715
       O     2.21932    5.68414   16.30344
      H1     2.17577    4.72610   16.50971
       H     1.18188    2.66219   16.39962
       O     2.16386    2.80395   16.18229
      H1     2.75632    2.85267   16.97912
       H     4.02488    4.71880   12.25729
       O     4.14905    5.38806   12.95169
      H1     3.28859    5.80974   13.03930
       H     4.76741    6.28209   11.41600
       O     4.86133    6.93788   10.68824
      H1     5.74229    7.31744   10.81992
       H     7.72628    3.44163   17.09464
       O     8.11614    3.44377   18.01772
      H1     7.44488    3.06629   18.66626
       H     9.88443    3.21692   11.80851
       O     9.18070    3.46916   11.19923
      H1     8.30428    3.20216   11.58551
       H     7.42906    6.13266   18.44569
       O     8.05031    6.78672   18.81934
      H1     8.72698    7.17542   18.24008
       H     6.98810    8.58066   11.79112
       O     7.16125    8.36282   10.86174
      H1     7.32866    9.29678   10.58194
       H     4.02498   10.16170   13.57619
       O     4.84769   10.21799   14.01554
      H1     4.91402   11.15361   14.11849
       H     6.75626    7.99227   13.84234
       O     7.19438    8.83821   13.70054
      H1     6.45713    9.45298   13.62385

