69
frame 2 | Written by MDAnalysis XYZWriter (release 2.4.3)
       H   -11.40916   12.60283  -11.07628
       O   -11.66629   11.73285  -10.78334
      H1   -12.64482   11.68851  -10.77554
       H   -10.90610   16.48826   -9.12797
       O   -11.11206   16.64767  -10.10595
      H1   -10.21719   16.89167  -10.41016
       H    -7.87079   11.18983   -4.37532
       O    -8.03039   12.12166   -4.45854
      H1    -8.58770   12.05365   -5.23570
       H   -14.21239   12.12441   -5.99325
       O   -14.21798   12.79496   -6.69769
      H1   -13.33991   12.77957   -7.11154
       H   -12.95760   10.16898   -6.86759
       O   -12.98561    9.78291   -7.71204
      H1   -13.66423   10.27898   -8.17344
       H   -13.77543   16.74657   -4.73656
       O   -13.59328   17.58034   -4.27362
      H1   -13.89899   17.40248   -3.35942
       H    -7.29362   13.74448  -11.37985
       O    -7.99069   13.80473  -10.65162
      H1    -8.91628   14.03419  -10.97682
       H   -11.03784   16.76652   -6.50851
       O   -11.49948   16.46789   -7.28877
      H1   -12.34963   16.94942   -7.24946
       H    -9.69818   18.34992   -5.17408
       O    -9.75991   17.38004   -5.12608
      H1    -9.04554   17.09280   -5.69290
       H   -13.36216   15.04747  -10.05846
       O   -14.18968   15.05732   -9.59445
      H1   -14.81264   15.55620  -10.17965
       H    -8.33323   16.09753   -8.71976
       O    -8.28196   16.44646   -9.62418
      H1    -8.27889   15.67195  -10.15992
       H   -11.43956   12.57510   -4.66719
       O   -11.71146   13.23805   -4.04044
      H1   -12.65935   13.19384   -3.90430
       H    -7.89580   14.87079   -7.05278
       O    -7.86723   15.81890   -6.91955
      H1    -7.14896   15.94739   -6.28927
       H   -15.28368   16.25961   -6.22170
       O   -15.26358   15.60714   -5.53293
      H1   -14.71895   14.87612   -5.90191
       H    -9.57167   10.47506   -7.28767
       O    -9.46868   11.45657   -7.04054
      H1   -10.03174   11.92983   -7.66374
       H   -11.36006   13.27429   -8.80128
       O   -11.71890   13.24580   -7.92208
      H1   -11.57775   14.10000   -7.53526
       H   -14.39662   18.31636   -7.93913
       O   -13.98903   17.43583   -7.71432
      H1   -14.03780   16.94043   -8.57474
       H    -7.03119   13.20406   -8.59325
       O    -6.97826   13.07874   -7.63228
      H1    -7.58492   12.27206   -7.49007
       H   -15.90011   10.45747   -8.33345
       O   -16.11516   10.97355   -7.55351
      H1   -15.31649   11.37628   -7.27746
       H   -10.71747   14.13864  -12.21347
       O   -10.57507   14.22986  -11.25551
      H1   -10.84636   15.13299  -11.02600
       H   -11.11112   11.08570   -6.11472
       O   -11.86263   10.87977   -5.54598
      H1   -11.67198   10.00816   -5.07410
       H   -10.38358   14.39597   -3.27240
       O    -9.46842   14.30098   -3.03989
      H1    -9.35137   13.42444   -3.35042
       H   -15.81075   13.84346   -8.46076
       O   -16.59743   13.30687   -8.68179
      H1   -16.47935   12.45003   -8.28864

