69
frame 2 | Written by MDAnalysis XYZWriter (release 2.4.3)
       H   -13.79233    3.51672   12.64410
       O   -13.98660    2.51953   12.71267
      H1   -13.44532    2.28728   13.45389
       H   -14.60717   -0.27621   15.13207
       O   -13.65909   -0.48734   15.08884
      H1   -13.54454   -0.82319   14.20435
       H   -15.45394    5.52649   10.29642
       O   -14.82398    4.91814    9.95308
      H1   -14.90317    4.26157   10.63089
       H   -14.02464    5.13329   14.27831
       O   -13.90812    5.37650   13.32837
      H1   -12.95221    5.36135   13.15029
       H   -16.60192    2.60152   15.10923
       O   -15.78721    3.01534   14.71650
      H1   -15.42193    2.51785   14.02639
       H   -15.45288    1.24577   12.28024
       O   -16.04105    0.75562   12.78258
      H1   -16.01678   -0.10362   12.28626
       H    -8.25524    1.63787   11.28643
       O    -8.79257    1.84639   12.09829
      H1    -9.67480    1.60816   11.84521
       H   -16.90031    0.84476    9.30036
       O   -16.73489    0.29832   10.04872
      H1   -16.67978   -0.63050    9.75108
       H    -7.86774    4.79157   12.79661
       O    -8.79932    4.55417   12.58156
      H1    -8.82896    3.62977   12.47894
       H   -14.40264    1.14391   10.13826
       O   -13.92601    1.40894    9.34772
      H1   -13.94448    0.59746    8.77553
       H    -7.99248    3.02567    9.45664
       O    -7.86518    2.07743    9.20305
      H1    -6.95424    1.87404    9.16442
       H   -10.78541    1.33688    6.35269
       O   -10.78963    1.39899    7.32193
      H1   -10.01591    1.96146    7.61603
       H   -13.11256   -1.21302    8.21523
       O   -13.61190   -0.49911    7.65647
      H1   -12.89858   -0.03781    7.19770
       H   -13.92521   -2.06778   11.22191
       O   -14.51740   -2.13029   10.44895
      H1   -15.38002   -2.05012   10.88940
       H   -10.89802    2.96269    9.37171
       O   -11.57439    3.64464    9.47307
      H1   -12.35050    3.05274    9.23812
       H   -13.38742   -3.15308   13.28833
       O   -13.18239   -2.25776   12.98779
      H1   -12.29289   -2.32341   12.73479
       H    -8.72564    4.61405   10.74278
       O    -8.52884    4.62710    9.77436
      H1    -7.73855    5.19901    9.80768
       H    -7.27379   -0.66203   14.34122
       O    -7.94114   -0.82489   13.69018
      H1    -8.67903   -0.28411   14.13005
       H   -10.50101    0.79970   15.16403
       O    -9.57288    0.62295   15.14266
      H1    -9.37145    0.24113   16.00532
       H    -9.90571   -2.61297   11.48026
       O   -10.54367   -1.94818   11.04059
      H1   -10.02044   -1.17415   11.14815
       H   -12.16096    1.41296   11.41671
       O   -11.41644    0.91179   11.78162
      H1   -11.47814    1.14615   12.69863
       H   -12.22091    2.43446   15.20170
       O   -12.06378    1.75320   14.56839
      H1   -12.50933    0.97209   14.91853
       H   -11.43987   -2.14842    9.29244
       O   -11.58436   -2.27984    8.35154
      H1   -10.80593   -1.83674    7.94220

