69
frame 1 | Written by MDAnalysis XYZWriter (release 2.4.3)
       H    11.32221   10.71243  -14.71022
       O    11.49651   11.57620  -14.44767
      H1    12.35647   11.78627  -13.96282
       H    15.11202   14.63878  -15.57576
       O    15.28546   14.62599  -14.60923
      H1    14.93804   13.73238  -14.36883
       H    13.63171   12.08925  -10.75454
       O    13.98917   12.96733  -10.94345
      H1    13.43891   13.64882  -10.55750
       H    16.05845   12.99862  -11.07247
       O    16.97963   12.71618  -10.91858
      H1    17.09525   12.97860   -9.99160
       H    14.75709    9.42863   -8.50333
       O    14.51661    9.61054   -9.40208
      H1    13.73441    9.07891   -9.59665
       H    11.09816    8.33823  -15.84655
       O    12.00166    8.40101  -16.15396
      H1    11.99917    8.25663  -17.10644
       H    12.48109    5.02399  -14.85305
       O    12.68598    4.45535  -14.12776
      H1    12.97645    5.03811  -13.45204
       H    12.03365   10.67610   -9.98034
       O    12.08277   11.46400   -9.35630
      H1    11.46400   11.20129   -8.64325
       H    16.88884    8.06785  -16.37397
       O    17.70580    8.17004  -16.83326
      H1    18.04644    7.28460  -16.81735
       H    12.07767    9.60304  -12.21403
       O    11.59332    9.81499  -11.40358
      H1    11.00358    9.10812  -11.16029
       H    13.93659    9.81433  -15.49119
       O    14.72887   10.42133  -15.50774
      H1    14.92844   10.43257  -16.43205
       H    14.71257   11.73487  -13.92126
       O    14.17050   12.38957  -13.54822
      H1    14.30927   12.39955  -12.61320
       H    13.01827    8.27368  -13.11697
       O    13.28910    9.16892  -13.27946
      H1    14.24768    9.08027  -13.22339
       H    15.96761    5.69830  -15.06117
       O    16.63897    5.10244  -14.61102
      H1    16.10546    4.27642  -14.76037
       H    11.50269    6.56615  -12.60773
       O    12.45038    6.52000  -12.38533
      H1    12.68201    6.99071  -11.56195
       H     8.95870    9.36666  -15.03029
       O     9.52161    9.29425  -14.24931
      H1     9.00734    9.60300  -13.51655
       H    17.02134    7.77576   -9.80600
       O    17.05260    8.46767  -10.50889
      H1    16.16336    8.86882  -10.28006
       H    14.51550    6.76460  -16.67887
       O    15.21770    7.05121  -16.05677
      H1    14.75574    7.68049  -15.48807
       H    19.18024   11.09671  -12.48997
       O    18.57611   11.73605  -12.98020
      H1    18.01453   12.07340  -12.24442
       H    16.79043    6.91715  -11.66965
       O    16.76437    5.98284  -11.92430
      H1    16.93969    5.88981  -12.82170
       H    12.14026    7.40288   -9.18147
       O    12.91360    7.32310   -9.78735
      H1    13.55700    6.85447   -9.28002
       H    18.11344    9.50874  -15.38345
       O    18.91267    9.50554  -14.80173
      H1    18.86177   10.42474  -14.44750
       H    17.15563    9.17847  -13.74098
       O    16.19864    9.14358  -13.68056
      H1    15.89038    9.64594  -14.44990

