69
frame 1 | Written by MDAnalysis XYZWriter (release 2.4.3)
       H   -18.94232   -0.79436   -4.79771
       O   -18.78243    0.06658   -5.25009
      H1   -18.65173    0.59819   -4.40296
       H   -17.33692   -5.55182   -1.55212
       O   -17.48006   -6.39395   -1.90364
      H1   -16.92130   -6.28777   -2.63510
       H   -16.49266   -6.59174    1.25557
       O   -15.95502   -7.27356    0.76349
      H1   -16.58611   -7.87035    0.32764
       H   -19.03228   -1.73552   -0.64046
       O   -18.79613   -2.29239    0.14210
      H1   -18.44197   -1.66407    0.84199
       H   -14.44210   -6.07105   -3.31563
       O   -15.36230   -5.97219   -3.72554
      H1   -15.30338   -6.49189   -4.55809
       H   -11.84392   -3.53743   -1.18657
       O   -11.44966   -2.63162   -1.16173
      H1   -11.56276   -2.44116   -0.22428
       H   -14.55841   -2.66007   -5.60380
       O   -14.78311   -2.74528   -6.52910
      H1   -14.57758   -1.89408   -6.98735
       H   -15.70349   -3.99343   -3.76430
       O   -16.14378   -3.15511   -3.60770
      H1   -15.47954   -2.48020   -3.68190
       H   -14.03574   -0.13170    3.35523
       O   -13.92354   -0.51560    2.43661
      H1   -14.40106   -1.36400    2.48554
       H   -14.93802   -0.00554   -0.12774
       O   -15.35168    0.51563    0.50603
      H1   -14.87549    0.07673    1.23171
       H   -19.29746   -4.96548   -1.07996
       O   -19.41379   -4.87743   -0.14323
      H1   -19.23924   -3.90980    0.06837
       H   -17.99685   -2.63574   -5.75378
       O   -18.37230   -2.65530   -4.82377
      H1   -17.53445   -2.63375   -4.34164
       H   -14.46597   -3.66600    3.44325
       O   -14.68345   -3.06251    2.71614
      H1   -14.37561   -3.50548    1.92304
       H   -13.64914   -0.90586   -3.28814
       O   -13.91642   -1.42263   -4.07445
      H1   -13.78086   -0.86525   -4.86170
       H   -13.20844    2.59844    1.50355
       O   -14.07773    2.72276    1.07285
      H1   -14.28216    1.78380    0.88144
       H   -12.43812   -4.43883   -4.79950
       O   -12.16672   -3.99271   -3.98463
      H1   -12.88354   -3.34777   -3.78444
       H   -16.86210   -4.29849    4.47365
       O   -17.02444   -4.09015    3.51996
      H1   -16.24660   -3.68392    3.12683
       H   -17.62095   -0.12339    2.85384
       O   -17.24751   -0.84661    2.27158
      H1   -16.54748   -0.32646    1.85134
       H   -16.44894   -2.58475   -2.00235
       O   -16.30123   -2.25165   -1.10663
      H1   -17.19403   -2.06903   -0.72733
       H   -12.96208   -6.14279   -1.85084
       O   -13.23099   -5.22396   -1.98097
      H1   -12.80684   -4.91544   -2.77022
       H   -12.39031    0.41184   -1.62295
       O   -12.99911   -0.30434   -1.59129
      H1   -12.40534   -1.11384   -1.49124
       H   -17.53905    2.83956   -0.70252
       O   -17.84810    1.98162   -0.41719
      H1   -17.07319    1.38829   -0.25448
       H   -13.98878   -4.32846   -0.53890
       O   -14.27267   -3.73222    0.17320
      H1   -15.11798   -3.27576   -0.08021

