69
frame 2 | Written by MDAnalysis XYZWriter (release 2.4.3)
       H    16.65686   -1.02479   12.53184
       O    16.34568   -1.71263   13.12687
      H1    15.62414   -1.39355   13.65826
       H    15.99972    4.85757   18.47013
       O    15.36032    4.55382   17.83555
      H1    15.23358    5.31210   17.31712
       H    16.92211    5.21657   10.86178
       O    16.03397    5.60691   10.72062
      H1    15.43647    5.26542   11.32068
       H    18.58282    3.74846   10.64529
       O    18.37719    4.55968   11.20424
      H1    18.79979    4.34828   12.02746
       H    13.37655    4.68183   17.93253
       O    12.44033    4.54280   17.84355
      H1    12.37443    3.83461   17.21675
       H    16.38172    1.00385   18.17522
       O    16.31246    0.51831   17.36576
      H1    16.34297   -0.40939   17.53313
       H    12.07191    0.98239   14.46243
       O    12.08086    0.02793   14.14040
      H1    12.22876    0.09608   13.20296
       H    13.73827    0.50806   11.29405
       O    13.66246   -0.41966   11.67037
      H1    13.88463   -1.02183   10.96509
       H    15.39822    2.20109   12.61104
       O    15.49424    2.68645   13.43986
      H1    15.22684    2.03734   14.10434
       H    13.74019    6.61678   14.82277
       O    13.23776    6.45219   14.01668
      H1    12.31631    6.27475   14.20804
       H    13.75271   -2.08712   14.71012
       O    14.26656   -1.51485   15.29611
      H1    13.56540   -1.04540   15.78965
       H    16.35010   -0.79838   10.58068
       O    17.04055   -0.21538   10.92020
      H1    17.70947   -0.17196   10.19008
       H    15.21600    2.60234    9.88366
       O    15.29547    2.01931   10.69637
      H1    16.01131    1.40405   10.51079
       H    13.41685   -0.27910   18.09795
       O    12.67432   -0.47048   17.50350
      H1    12.63797   -1.43874   17.63281
       H    13.49499    5.10418   12.88780
       O    13.68779    4.41256   12.26339
      H1    14.38009    3.91281   12.70342
       H    10.06077    1.49125   17.32919
       O    10.77998    1.41535   16.67391
      H1    11.34210    0.67389   16.96719
       H    15.11717    0.98297   16.16966
       O    14.41332    1.30684   15.57080
      H1    14.15916    0.52725   15.11199
       H    18.44568   -0.75821   15.21574
       O    18.34973   -1.66300   15.05307
      H1    17.47000   -1.75463   14.58910
       H    18.23551    4.65339   15.72663
       O    18.84684    5.40956   16.08842
      H1    18.35740    6.21391   15.95001
       H    16.16417    7.87433   14.10653
       O    16.62134    7.14315   14.51561
      H1    16.62062    6.39697   13.96426
       H    12.00066    1.92008   11.42212
       O    11.75486    2.55403   12.08401
      H1    12.52890    3.12697   12.08151
       H    16.55891    2.93634   14.71762
       O    17.04916    3.16227   15.52921
      H1    16.46243    3.50001   16.20647
       H    19.55877    1.43585   15.35414
       O    18.68066    1.10519   15.11674
      H1    18.04267    1.78426   15.43523

