69
frame 2 | Written by MDAnalysis XYZWriter (release 2.4.3)
       H     4.77616   17.10435  -13.92581
       O     4.15202   17.37103  -14.60441
      H1     3.28251   17.58286  -14.14039
       H     4.61246   14.70956  -19.69525
       O     3.91858   14.04571  -19.77094
      H1     3.69170   13.78422  -18.86026
       H    11.09961   16.49981  -15.79071
       O    11.85139   16.09071  -16.25312
      H1    11.59438   15.17593  -16.33774
       H     9.61516   14.94381  -12.82693
       O     9.07479   15.47149  -13.38487
      H1     8.71559   15.03210  -14.16499
       H     8.27620   18.12254  -18.18359
       O     7.71959   18.85281  -18.44782
      H1     8.34176   19.51600  -18.87429
       H     7.30478   16.13208  -13.21039
       O     6.42267   16.53312  -13.29686
      H1     6.44933   17.04436  -12.45819
       H     3.27490   15.96388  -15.94971
       O     2.81281   15.45647  -16.59894
      H1     2.23970   16.15387  -16.93442
       H     5.13335   13.71918  -15.52081
       O     5.80116   13.44813  -16.12683
      H1     6.29088   12.72698  -15.67789
       H     9.52723   18.34305  -15.13240
       O     9.79460   17.45386  -15.22955
      H1     9.56951   16.99124  -14.41659
       H     9.61310    8.38724  -17.22536
       O     9.45850    9.19309  -16.66047
      H1     9.35165    9.89676  -17.32785
       H     7.21574   14.79068  -16.11152
       O     8.07447   15.18145  -15.94031
      H1     8.18015   16.01617  -16.43166
       H     2.46794   12.36411  -17.69917
       O     3.33260   12.75200  -17.41100
      H1     3.12673   13.66756  -17.03945
       H     8.57552   15.98459  -19.00597
       O     9.18014   16.37459  -18.39895
      H1     9.92725   16.53029  -18.97345
       H     6.22473   13.47896  -17.84235
       O     6.74781   13.66609  -18.66361
      H1     7.65270   13.52034  -18.37018
       H     9.99606   13.70312  -19.07471
       O     9.63884   13.75916  -18.20472
      H1     9.39376   14.72377  -17.92283
       H    11.73462   17.56508  -18.13775
       O    11.73853   17.31916  -19.11256
      H1    12.20557   17.99312  -19.60695
       H    14.11954   15.03656  -14.50203
       O    13.37263   15.56956  -14.15517
      H1    12.79718   15.59827  -14.96836
       H     9.43171   10.84447  -19.73283
       O     9.97262   10.63339  -18.97615
      H1    10.69591   11.29972  -18.92934
       H     1.73938   18.45284  -17.47343
       O     2.60600   18.50282  -17.04390
      H1     3.21779   18.97985  -17.67263
       H     6.05123   11.42972  -17.79201
       O     6.63861   10.65258  -17.89009
      H1     6.74375   10.64005  -18.85368
       H    12.61432   12.66005  -18.68594
       O    12.50120   12.08559  -19.42900
      H1    13.33838   11.62542  -19.34203
       H    11.07198   13.27136  -17.21740
       O    11.95827   13.24824  -16.82282
      H1    11.95691   12.64415  -16.11823
       H     8.42564   11.71225  -14.82086
       O     7.60404   11.52931  -15.34195
      H1     7.80775   11.12034  -16.18799

