69
frame 2 | Written by MDAnalysis XYZWriter (release 2.4.3)
       H    -7.68116    8.20047  -17.92304
       O    -8.66002    8.43468  -17.81861
      H1    -9.07162    8.01400  -17.03179
       H   -17.95581    5.68333  -20.13040
       O   -17.29226    5.79599  -19.42559
      H1   -17.01326    6.68766  -19.53890
       H   -11.83079    7.90742  -18.51433
       O   -11.08123    7.75508  -19.12104
      H1   -10.31115    7.83122  -18.53321
       H   -13.34415    1.79197  -14.78370
       O   -14.03871    2.32619  -15.22273
      H1   -14.34502    3.16854  -14.83577
       H   -18.10085    6.62945  -16.48689
       O   -18.36140    5.80073  -16.85002
      H1   -18.01417    5.59420  -17.74537
       H   -16.01633    0.56505  -17.76977
       O   -15.33962    0.47766  -17.13780
      H1   -15.00998    1.33613  -16.85691
       H   -11.53713    6.01250  -19.07919
       O   -11.38412    5.08378  -19.23632
      H1   -11.81344    4.62918  -18.48586
       H   -13.33329    7.28580  -16.68369
       O   -13.44584    7.96503  -17.35178
      H1   -13.26491    8.78209  -16.90476
       H   -14.70662   10.88511  -19.05704
       O   -15.61559   10.62961  -19.30795
      H1   -15.64358    9.67081  -19.20843
       H   -17.03858   10.49085  -18.00072
       O   -17.87163   10.52451  -17.44057
      H1   -17.81303    9.79161  -16.80409
       H   -10.64148   11.17659  -16.58253
       O   -11.24199   10.52837  -17.03837
      H1   -10.88188    9.60738  -17.02911
       H   -18.10914    8.39290  -15.01436
       O   -17.46390    8.11158  -15.72172
      H1   -16.69546    8.00233  -15.22300
       H    -9.91698    4.57188  -14.57074
       O    -9.81903    3.95621  -15.30937
      H1    -9.73109    3.05537  -14.84855
       H   -12.25971   11.14441  -18.35942
       O   -12.80366   11.34867  -19.12811
      H1   -12.22615   11.28274  -19.93805
       H   -17.17115    1.10517  -19.25541
       O   -17.39412    0.25851  -18.81617
      H1   -17.05270   -0.49850  -19.35067
       H    -8.65218    5.33194  -19.81275
       O    -8.53223    4.46354  -19.52711
      H1    -9.28371    4.25256  -18.93581
       H   -15.80928    5.02980  -19.61559
       O   -14.93808    4.61239  -19.31052
      H1   -14.30005    5.06267  -19.78942
       H   -15.23739    4.80880  -13.26854
       O   -14.36332    4.32585  -13.34145
      H1   -14.37019    3.76274  -12.55110
       H    -9.55289    7.79881  -14.86470
       O   -10.10934    7.95684  -15.67244
      H1   -10.92747    7.53483  -15.30051
       H   -14.03975    4.66843  -17.74080
       O   -13.29696    4.67452  -17.09815
      H1   -13.62051    4.00564  -16.44199
       H   -14.89409    7.38756  -19.63837
       O   -15.49730    7.83838  -19.01731
      H1   -15.02941    7.76808  -18.17972
       H   -12.58939    5.75765  -15.61793
       O   -12.54933    6.56018  -15.02815
      H1   -13.47977    6.65354  -14.67927
       H   -16.64334    5.06209  -16.25533
       O   -15.99086    4.87158  -15.53155
      H1   -16.50321    5.24132  -14.79390

