69
frame 2 | Written by MDAnalysis XYZWriter (release 2.4.3)
       H    -2.97378   17.74822   -3.06572
       O    -3.56530   17.45195   -2.34080
      H1    -3.32592   18.00654   -1.59217
       H    -1.21098   15.31251   -2.61605
       O    -1.88382   15.18381   -1.93549
      H1    -2.41604   15.99540   -1.93207
       H     2.06689   19.68145    0.51946
       O     2.07867   18.69679    0.60120
      H1     1.23070   18.44842    0.17278
       H    -3.05181   16.35746    1.82200
       O    -2.22351   16.88863    1.84645
      H1    -2.27623   17.30537    2.72156
       H    -2.38209   18.12056   -5.27115
       O    -1.74317   17.56015   -4.81552
      H1    -0.96910   18.06211   -4.58019
       H     3.38587   19.65159    4.96630
       O     3.29298   18.71857    4.71040
      H1     4.06871   18.48583    4.20092
       H     5.84607   16.51888   -2.33139
       O     6.76767   16.82300   -2.24419
      H1     6.80979   17.06236   -3.14426
       H     2.55677   16.54325   -1.08046
       O     2.57339   16.75199   -1.99661
      H1     2.41974   17.68395   -1.99171
       H     0.31397   18.56837    4.07054
       O     0.66419   17.70635    4.07421
      H1     1.64158   17.73266    3.97457
       H     4.02943   14.51964    0.47625
       O     4.05927   15.32485   -0.09303
      H1     4.27822   16.07347    0.53614
       H    -0.59477   15.15417    2.68829
       O     0.24128   15.19272    2.25916
      H1     0.61483   16.06428    2.61484
       H    -0.54457   13.96917    0.98740
       O    -0.77895   13.49431    0.18682
      H1    -1.30766   14.11965   -0.35253
       H     6.02678   18.17352   -1.65514
       O     5.71000   19.08480   -1.29434
      H1     4.96599   19.39032   -1.87479
       H    -0.81874   16.93606    0.52949
       O    -0.30432   17.32211   -0.22565
      H1    -0.39048   16.59969   -0.81284
       H     3.74605   16.11908   -3.09381
       O     4.52350   15.93337   -3.69178
      H1     4.77223   15.04624   -3.49505
       H     5.39229   15.18639    2.83237
       O     6.24359   14.80369    3.16462
      H1     6.14510   14.71135    4.11064
       H    -1.48925   18.85574   -0.31110
       O    -2.34458   19.19292   -0.62438
      H1    -3.01311   19.40979    0.03534
       H     6.34133   19.11740    0.38593
       O     6.33368   19.28136    1.34520
      H1     7.21359   19.38477    1.70396
       H     0.98755   15.84905   -3.20499
       O     0.31039   15.22949   -3.61859
      H1     0.17347   15.47170   -4.56210
       H     5.07397   18.21235    1.98275
       O     4.36569   17.54130    2.08198
      H1     3.54435   17.99558    1.81423
       H     0.38676   12.37133    3.97204
       O     1.20548   12.86414    3.78616
      H1     1.02266   13.64455    3.22316
       H    -0.47319   17.22101    5.23527
       O    -1.21082   17.34723    5.89103
      H1    -1.91167   16.68584    5.83260
       H     3.56333   14.22933   -1.56079
       O     3.39854   13.54167   -2.22854
      H1     4.16587   12.95629   -2.24789

