69
frame 0 | Written by MDAnalysis XYZWriter (release 2.4.3)
       H    13.42944  -12.61604    4.32844
       O    12.68761  -12.47121    3.67834
      H1    12.26242  -13.26709    3.73700
       H     9.26236  -13.80345    0.39795
       O     8.71009  -13.65800   -0.36220
      H1     8.99849  -12.77521   -0.74656
       H    11.03987  -15.60562    4.35287
       O    11.91609  -15.24847    4.64610
      H1    12.47956  -16.01656    4.68562
       H    13.33235  -11.01266    0.73359
       O    12.88502  -10.20050    0.84893
      H1    12.04851  -10.29688    0.46666
       H    12.54887  -14.13271   -2.11010
       O    12.81367  -14.49067   -2.99443
      H1    13.21526  -15.35486   -2.92358
       H    13.38313  -12.61746    2.06202
       O    13.39415  -12.82298    1.11655
      H1    14.30137  -13.25486    1.05745
       H     8.49399  -15.82206    3.32587
       O     9.21644  -15.89331    3.97166
      H1     9.02603  -16.71922    4.47190
       H     7.48371  -15.01582   -0.62806
       O     6.87652  -15.75242   -0.58823
      H1     7.41495  -16.57775   -0.71018
       H     7.89087  -11.07406   -1.73419
       O     8.79885  -11.31735   -1.82930
      H1     9.12918  -10.89808   -2.63756
       H     9.55938  -17.41239   -0.08639
       O     8.91540  -17.82254   -0.63687
      H1     9.41729  -17.88236   -1.45801
       H     5.43536  -12.24736    1.97462
       O     5.45103  -13.06861    2.42506
      H1     4.91291  -13.75421    1.99045
       H     4.80315  -14.00415   -1.07721
       O     3.94396  -13.79455   -0.68191
      H1     3.82144  -12.86653   -0.89164
       H    10.10944   -9.09549    0.01846
       O    10.54591   -9.97883   -0.12868
      H1     9.91712  -10.38331   -0.73735
       H    12.13575  -13.56419   -0.10336
       O    11.43408  -13.78621   -0.70303
      H1    10.91320  -14.52794   -0.41513
       H     6.50106  -14.98989    2.80744
       O     6.83921  -15.79212    2.40807
      H1     6.82035  -15.48483    1.44696
       H     9.85423  -10.56945    1.98645
       O     9.73776  -10.46644    2.92444
      H1    10.63744  -10.18060    3.19934
       H     6.14547  -15.38746   -2.22895
       O     5.67330  -15.08191   -3.05677
      H1     6.14046  -15.77021   -3.70066
       H    11.35800  -16.76438    0.87639
       O    10.48425  -16.41350    1.02454
      H1    10.48224  -16.54204    1.95508
       H    13.04869  -18.24142    1.11328
       O    12.93553  -17.62540    0.41643
      H1    13.82148  -17.46548   -0.01714
       H     8.12199  -12.23389    5.31485
       O     8.36652  -13.19995    5.34865
      H1     8.77076  -13.32552    4.47908
       H     9.73325  -12.46992    2.70667
       O     9.44539  -13.37539    2.51186
      H1     8.59818  -13.20503    2.06272
       H    12.64965  -11.99803   -2.68089
       O    11.79578  -11.59370   -2.26651
      H1    11.52302  -12.42884   -1.82837
       H     5.39718  -10.02622   -0.09319
       O     5.83541  -10.15086   -0.95695
      H1     5.11338  -10.56371   -1.46534

