69
frame 0 | Written by MDAnalysis XYZWriter (release 2.4.3)
       H   -15.18382   12.21431    2.03245
       O   -16.14373   12.48009    1.90134
      H1   -16.04709   13.18157    1.27351
       H   -10.43805   10.94596    1.83033
       O   -11.09235   10.81828    2.55329
      H1   -11.86747   11.20695    2.14410
       H   -16.69225   12.00384   -1.98552
       O   -15.98213   11.38096   -2.12205
      H1   -15.68091   11.34448   -3.07379
       H   -12.96676    9.93261   -2.16467
       O   -12.60648    9.85972   -2.99876
      H1   -12.75859   10.73384   -3.43173
       H   -13.04925   15.51270    4.31937
       O   -12.60988   16.36405    4.16480
      H1   -11.83732   16.34076    4.72611
       H    -9.08001   10.89252   -0.19276
       O   -10.06797   10.85452   -0.07805
      H1   -10.37624   10.13605   -0.66552
       H   -17.14783   13.52413    2.91998
       O   -18.05014   13.62792    3.29402
      H1   -17.94229   14.40940    3.80561
       H   -15.72178   15.31190    0.60660
       O   -16.58391   14.90540    0.86033
      H1   -17.20531   15.18036    0.22041
       H   -13.51557   12.44088    0.83240
       O   -13.38910   11.74709    1.47388
      H1   -13.69306   11.00792    1.01546
       H   -15.79206   13.76457   -2.81437
       O   -14.97472   14.11248   -3.22854
      H1   -14.29554   13.78989   -2.58413
       H   -10.91693   12.39241   -0.21075
       O   -11.00853   13.31531   -0.44872
      H1   -10.60534   13.33225   -1.33824
       H   -13.29190    9.35511    0.22067
       O   -13.67718    9.87131   -0.47990
      H1   -14.54434    9.50428   -0.42190
       H   -11.50966    8.84999    1.82068
       O   -12.20106    8.31723    1.38658
      H1   -11.75694    7.96526    0.65106
       H   -17.42165   10.79320    1.69620
       O   -18.00571   10.13398    1.30017
      H1   -17.89162    9.28126    1.73224
       H    -9.60316   13.44472    3.54678
       O    -9.08731   13.90845    2.86862
      H1    -9.90705   14.11129    2.41667
       H   -10.90440   11.94680    4.11518
       O   -10.62171   12.60050    4.77106
      H1   -10.17008   12.01944    5.36902
       H   -12.57467   13.60541   -0.66653
       O   -13.53514   13.65763   -0.81081
      H1   -13.80921   14.58655   -0.71370
       H   -15.49922   12.13890    5.60422
       O   -16.15615   12.80273    5.68361
      H1   -17.04630   12.43550    5.43971
       H   -13.80135    6.93370    2.27753
       O   -14.66027    6.94546    1.88112
      H1   -14.55207    6.58585    1.03236
       H   -12.27822    9.65176    5.09504
       O   -11.51694    9.05315    4.89906
      H1   -11.11519    9.33459    4.07030
       H   -12.92296   11.76111    5.91013
       O   -13.64081   11.08110    6.01037
      H1   -13.97159   10.98399    6.90820
       H   -16.90492    9.49710   -0.02371
       O   -16.38757    9.13464   -0.75301
      H1   -16.20811    9.89364   -1.39371
       H   -10.71163   14.85067    0.47453
       O   -10.60452   15.67297    0.99609
      H1    -9.72324   16.06357    0.92881

