69
frame 2 | Written by MDAnalysis XYZWriter (release 2.4.3)
       H    10.53628   -2.62778   15.95537
       O    10.73334   -2.81279   16.88829
      H1    10.62920   -3.76590   17.03990
       H     7.56170   -2.42683   11.05676
       O     6.91391   -1.99640   10.46650
      H1     6.53451   -2.77680   10.01198
       H    12.07191    0.98239   14.46243
       O    12.08086    0.02793   14.14040
      H1    12.22876    0.09608   13.20296
       H    13.73827    0.50806   11.29405
       O    13.66246   -0.41966   11.67037
      H1    13.88463   -1.02183   10.96509
       H    13.25732   -6.66413   15.74258
       O    12.71359   -6.01340   15.23034
      H1    12.18856   -6.58590   14.67331
       H    13.10919   -4.26792   13.72151
       O    13.06508   -3.30212   13.65206
      H1    13.64108   -3.17855   12.83169
       H     4.49813   -3.42799   14.81312
       O     5.46005   -3.39929   14.74572
      H1     5.63317   -3.17619   13.79862
       H    13.75271   -2.08712   14.71012
       O    14.26656   -1.51485   15.29611
      H1    13.56540   -1.04540   15.78965
       H     7.20728   -5.81461   12.88063
       O     7.62595   -5.90894   12.04981
      H1     7.99119   -6.77629   12.09192
       H     9.91193   -6.06897   17.08908
       O    10.56425   -5.42758   17.36259
      H1    11.40494   -5.50945   16.82826
       H     9.70056    1.23693   12.38657
       O     9.09807    0.51862   12.46702
      H1     8.45680    0.58082   11.78330
       H     8.01253   -1.30818   18.22136
       O     8.99040   -1.32775   18.40817
      H1     9.45967   -1.84518   17.71488
       H    12.93299   -3.82389   16.61238
       O    13.70717   -3.38990   17.06480
      H1    14.07703   -2.79660   16.43013
       H     8.53560   -4.27350   12.27184
       O     8.80911   -3.39532   11.98742
      H1     9.39970   -3.07562   12.71173
       H    11.61246   -0.38786   10.01465
       O    11.30007    0.48831   10.10815
      H1    10.38250    0.44899   10.19287
       H    13.41685   -0.27910   18.09795
       O    12.67432   -0.47048   17.50350
      H1    12.63797   -1.43874   17.63281
       H    10.06077    1.49125   17.32919
       O    10.77998    1.41535   16.67391
      H1    11.34210    0.67389   16.96719
       H     7.23599   -0.95744   16.05853
       O     6.46083   -1.35037   16.41869
      H1     6.24270   -2.14905   15.91811
       H     5.46923   -6.56209   14.59440
       O     6.29046   -6.06782   14.84792
      H1     6.06355   -5.12376   14.89927
       H    11.56039   -2.97498   10.11399
       O    11.98628   -2.16267    9.81822
      H1    12.56308   -2.47307    9.14547
       H     8.97368    0.39220   14.40760
       O     8.92783   -0.09156   15.23461
      H1     9.45842    0.44270   15.84259
       H    10.05405   -4.68778    9.49303
       O    10.56420   -4.62481   10.30978
      H1     9.94395   -4.03642   10.82122
       H    11.04331   -2.16031   13.82081
       O    10.14858   -2.39387   14.10837
      H1     9.74746   -1.60937   14.55376

