69
frame 3 | Written by MDAnalysis XYZWriter (release 2.4.3)
       H    -1.02419  -15.83124  -10.51186
       O    -1.99074  -15.93717  -10.56541
      H1    -2.38826  -15.04103  -10.61764
       H    -6.38130  -10.92773  -10.52124
       O    -6.27352   -9.98259  -10.85490
      H1    -5.34371   -9.79941  -10.81131
       H    -5.34850  -14.90262  -11.81294
       O    -4.99199  -14.05329  -12.07975
      H1    -5.77568  -13.48403  -12.08401
       H    -5.37923  -16.13237   -7.40112
       O    -6.11380  -16.76222   -7.60910
      H1    -6.69782  -16.30143   -8.26341
       H    -1.77485  -16.85287  -12.01359
       O    -1.71088  -17.22864  -12.88457
      H1    -1.03294  -17.92640  -13.00809
       H    -2.97212  -11.42652   -3.97952
       O    -3.07378  -12.05559   -4.76670
      H1    -2.69396  -11.71906   -5.59395
       H    -3.79934   -8.95924  -12.23054
       O    -3.69090   -9.04403  -11.26659
      H1    -3.17967   -8.26092  -11.00743
       H    -5.70921  -11.81699  -13.85056
       O    -6.49877  -11.91748  -13.28905
      H1    -6.70570  -11.10171  -12.84613
       H    -4.20121  -14.00918   -7.23796
       O    -4.38269  -14.78803   -6.69908
      H1    -4.79521  -14.48540   -5.83278
       H    -3.96453  -13.58565  -10.69335
       O    -3.12004  -13.56710  -10.23726
      H1    -3.14205  -13.08558   -9.45155
       H     0.32854  -13.89226  -12.78013
       O     0.41149  -13.72195  -13.71358
      H1    -0.42785  -13.34414  -13.83559
       H    -0.97029  -10.88991  -10.77448
       O    -0.03563  -10.77860  -10.42809
      H1     0.31250  -11.69634  -10.45798
       H    -2.59812  -15.53393   -6.70273
       O    -1.73564  -15.90830   -6.62983
      H1    -1.39848  -15.93856   -7.52427
       H    -3.09637  -11.40358   -7.91090
       O    -3.61441  -12.20794   -7.77195
      H1    -4.47168  -11.85253   -7.56955
       H    -0.61917  -10.81451   -7.01934
       O    -1.49958  -10.33031   -7.11088
      H1    -1.56283   -9.46969   -6.60047
       H    -2.64011  -10.59291  -11.38319
       O    -2.28797  -11.51785  -11.59382
      H1    -2.65819  -12.20025  -10.98097
       H    -7.80613  -15.58049  -10.43599
       O    -7.60119  -15.53112   -9.50242
      H1    -8.45368  -15.86685   -9.09164
       H     1.13240  -15.93044   -7.73056
       O     0.46525  -16.01023   -8.44440
      H1     0.78383  -16.60417   -9.08781
       H     1.37934  -13.04091  -10.41019
       O     0.49156  -13.37439  -10.42564
      H1     0.56030  -14.04937   -9.74700
       H    -6.84529  -11.11569   -6.96691
       O    -6.39325  -11.92109   -7.32330
      H1    -6.63793  -11.97511   -8.29842
       H    -2.96905  -12.19137  -14.53242
       O    -2.02529  -12.32303  -14.31832
      H1    -2.07140  -12.22439  -13.35483
       H    -3.59015  -16.95515  -10.09873
       O    -4.30938  -17.54824   -9.90037
      H1    -4.97546  -17.06036   -9.37492
       H    -7.35214  -13.46264   -9.88708
       O    -7.10676  -12.51355   -9.93477
      H1    -7.90789  -12.07281   -9.65819

