69
frame 2 | Written by MDAnalysis XYZWriter (release 2.4.3)
       H     4.17850   12.41199   18.61441
       O     4.26935   11.48286   18.38934
      H1     5.18188   11.17667   18.57053
       H     6.54494   12.44051   15.34472
       O     7.19328   12.70750   16.00317
      H1     7.72704   11.93665   16.17037
       H    10.38635    6.35434   17.21737
       O     9.99078    7.17765   17.35469
      H1    10.57690    7.82919   16.99883
       H    10.80545    5.34343   13.77897
       O    10.51504    6.25446   13.90397
      H1     9.70961    6.09466   14.43966
       H     5.83413    4.85434   17.75995
       O     5.95398    5.71536   18.23067
      H1     5.34444    6.24055   17.67995
       H    11.46360   13.13438   15.77586
       O    11.07818   12.49027   16.48050
      H1    10.97819   13.01275   17.31176
       H     9.62951   11.35399   16.82453
       O     8.85429   10.85946   17.10475
      H1     8.88661   10.08016   16.50550
       H    10.77760    9.64834   13.89184
       O    11.18855    9.89233   13.06108
      H1    10.88065    9.25135   12.39777
       H     3.30856    6.55324   16.55851
       O     4.14124    7.11558   16.58368
      H1     3.89255    8.03671   16.35798
       H     9.91146    7.78883   15.03133
       O     9.60143    8.67014   15.03008
      H1     8.70691    8.58149   14.63825
       H     5.05554    6.20078   15.43375
       O     5.63272    5.76528   14.77812
      H1     5.19692    5.95693   13.96160
       H     9.67563   14.36311   14.79138
       O     9.02050   13.82226   14.32311
      H1     8.57591   13.47480   15.06562
       H     7.76322    1.91884   17.71555
       O     8.51223    2.35786   18.16706
      H1     8.55985    3.19236   17.72281
       H     3.53832   10.35346   15.23123
       O     3.28365   10.05898   16.09364
      H1     4.03988   10.47453   16.50025
       H     8.86239    4.32112   14.45741
       O     8.58177    4.89113   15.23464
      H1     7.70376    5.22214   14.90649
       H     6.59821   13.79544   17.35710
       O     6.44899   14.48948   17.99398
      H1     6.52995   14.07585   18.85143
       H     5.34346    1.87018   18.17080
       O     5.56573    2.79281   18.10032
      H1     5.95852    3.05608   18.97919
       H     1.68516   10.21643   16.77487
       O     0.83307   10.35285   17.13702
      H1     0.83760   11.19985   17.57093
       H     7.42079    6.95559   18.60658
       O     7.95347    7.58427   19.12929
      H1     8.71966    7.67563   18.56758
       H     6.96684    9.29209   18.93598
       O     6.82648   10.20682   18.66498
      H1     7.61049   10.39139   18.06709
       H     4.31506    9.81670   12.42101
       O     4.80600   10.01624   13.24292
      H1     4.85112   10.91803   13.36830
       H     6.55768    7.81942   15.15631
       O     6.97560    8.40233   14.49011
      H1     6.22527    8.98630   14.23275
       H    11.91033   10.78412   17.31816
       O    12.23981    9.88132   17.47169
      H1    12.84756    9.96894   18.16750

