69
frame 2 | Written by MDAnalysis XYZWriter (release 2.4.3)
       H     5.34850   -0.58112    4.15992
       O     5.27737   -0.68927    3.20927
      H1     5.81233    0.08124    2.98577
       H    -0.73749   -2.05568   -2.93406
       O    -1.45538   -1.65801   -3.43694
      H1    -1.09561   -1.65975   -4.37575
       H     5.52720   -2.23654    1.92637
       O     5.81788   -2.87826    1.21496
      H1     6.45903   -2.34774    0.71089
       H    -1.42677   -4.73403    1.45254
       O    -1.30183   -5.20238    0.55232
      H1    -1.07161   -4.45075   -0.08755
       H     1.80414    2.78283    1.34533
       O     2.47785    2.91921    0.67792
      H1     2.98448    2.08061    0.64835
       H     3.23120   -1.90159    3.93629
       O     2.59232   -1.24283    4.23676
      H1     3.11000   -0.44202    4.31642
       H    -2.02801   -3.62743    4.20439
       O    -1.90533   -2.82913    4.76469
      H1    -1.26880   -2.98537    5.48299
       H     2.09809   -1.35822   -0.75143
       O     2.26203   -2.23067   -1.12046
      H1     2.70294   -2.16967   -1.90826
       H     0.57381   -2.76485   -1.24263
       O    -0.30995   -3.19094   -1.29078
      H1    -0.37415   -3.75230   -2.07404
       H     3.75306   -3.57132    5.54255
       O     3.96259   -3.64844    4.59503
      H1     3.10042   -3.71534    4.11342
       H     2.53049   -4.05178    1.57483
       O     1.83494   -4.13880    2.23079
      H1     1.05570   -3.68198    1.85920
       H     5.63637    0.83135   -2.37137
       O     4.82957    0.33382   -2.58038
      H1     4.34849    0.42542   -1.73242
       H    -1.34214    0.15463   -1.01659
       O    -0.43846    0.14688   -0.74261
      H1     0.07970    0.55391   -1.45305
       H     0.51640   -0.35532    4.09984
       O    -0.17907    0.06360    4.63178
      H1    -1.06490   -0.11079    4.22935
       H     1.70116    2.10980   -2.55963
       O     1.14002    1.33590   -2.83266
      H1     1.69347    0.88923   -3.47653
       H     2.18512   -1.39066    6.36283
       O     1.59937   -1.71479    7.01844
      H1     1.69598   -1.07920    7.75303
       H     3.26400   -3.75027   -0.41476
       O     3.77589   -4.30356    0.15598
      H1     4.52686   -3.76192    0.56364
       H    -2.00364   -2.09327    1.75378
       O    -1.15028   -1.64420    1.56689
      H1    -1.31787   -1.33055    0.65454
       H    -0.75460    1.58855    0.66241
       O    -1.11675    2.12885    1.38089
      H1    -1.87665    1.55029    1.69321
       H     0.18908    2.22208    2.55724
       O     1.05688    2.50184    2.88792
      H1     1.25296    1.91469    3.67222
       H     3.12399    1.77814    5.81587
       O     2.84808    1.92901    4.91448
      H1     3.43336    2.63497    4.64288
       H     4.64510    1.15730    0.32029
       O     3.81322    0.74990   -0.02390
      H1     3.37024    0.17595    0.61847
       H     2.35784   -0.78897    2.45462
       O     2.08889   -0.81651    1.53860
      H1     1.15282   -0.96179    1.51095

