69
frame 2 | Written by MDAnalysis XYZWriter (release 2.4.3)
       H   -17.76639   11.42098  -11.38403
       O   -18.03967   10.49613  -11.40656
      H1   -18.57302   10.33769  -10.58428
       H   -11.87858   11.08190  -14.29819
       O   -12.83951   10.78656  -14.44921
      H1   -13.27928   11.44879  -13.90583
       H   -11.40916   12.60283  -11.07628
       O   -11.66629   11.73285  -10.78334
      H1   -12.64482   11.68851  -10.77554
       H   -13.97383   13.27563  -12.87087
       O   -13.96050   12.39025  -12.57969
      H1   -14.84729   11.99117  -12.79273
       H   -15.45374   15.09249  -13.03842
       O   -16.13189   15.38249  -12.36177
      H1   -16.38411   14.53617  -11.91198
       H   -18.11062   16.53332  -12.22237
       O   -18.75562   16.98765  -12.77376
      H1   -18.35357   16.88680  -13.65243
       H   -15.53907   18.20592  -18.10271
       O   -15.86882   17.56300  -17.47260
      H1   -16.44567   17.06544  -18.04313
       H   -10.88527   15.44715  -13.77992
       O   -11.02506   14.50751  -13.98728
      H1   -10.50227   14.43743  -14.81485
       H   -17.53695   12.74320  -14.23300
       O   -18.29047   13.33158  -14.20359
      H1   -18.97505   12.76865  -13.95276
       H   -12.89905   14.45190  -14.47653
       O   -13.82778   14.77550  -14.29371
      H1   -14.23429   14.79532  -15.16409
       H   -17.79442   13.78609  -11.52825
       O   -17.15479   13.13684  -11.29360
      H1   -17.03244   13.30302  -10.24649
       H   -13.36216   15.04747  -10.05846
       O   -14.18968   15.05732   -9.59445
      H1   -14.81264   15.55620  -10.17965
       H   -15.22848   19.83631  -11.51568
       O   -15.59952   18.95456  -11.20993
      H1   -16.51734   19.12598  -10.91651
       H   -15.91034   11.08271  -15.23020
       O   -16.41723   10.83996  -14.42732
      H1   -17.13140   10.22909  -14.66909
       H   -18.30732   13.22185  -16.19569
       O   -18.41223   13.02938  -17.15756
      H1   -18.20836   12.09868  -17.23308
       H   -18.82117   17.54219  -15.86682
       O   -17.99537   17.76711  -15.36544
      H1   -17.31466   17.79286  -16.06160
       H   -14.39662   18.31636   -7.93913
       O   -13.98903   17.43583   -7.71432
      H1   -14.03780   16.94043   -8.57474
       H   -12.44383   16.73648  -14.86911
       O   -12.46150   17.59199  -14.46294
      H1   -13.39644   17.77755  -14.30451
       H   -13.90016   14.02587  -17.34834
       O   -14.66473   14.08063  -16.81107
      H1   -15.43007   14.39497  -17.36965
       H   -14.21713   12.03376  -16.64558
       O   -14.63441   11.20070  -16.39231
      H1   -13.90881   10.86152  -15.88187
       H   -10.71747   14.13864  -12.21347
       O   -10.57507   14.22986  -11.25551
      H1   -10.84636   15.13299  -11.02600
       H   -15.45355   17.78178  -14.65711
       O   -14.97442   18.27909  -13.97400
      H1   -15.42539   18.24345  -13.15821
       H   -15.81075   13.84346   -8.46076
       O   -16.59743   13.30687   -8.68179
      H1   -16.47935   12.45003   -8.28864

