69
frame 4 | Written by MDAnalysis XYZWriter (release 2.4.3)
       H     7.87670    9.26026  -12.55114
       O     8.20807   10.10641  -12.44731
      H1     8.49536   10.06651  -11.50722
       H    12.96757    9.79220  -15.55962
       O    12.67641   10.76530  -15.60874
      H1    13.52643   11.17917  -15.48470
       H     9.70002   14.35068  -12.62363
       O     9.22519   14.75617  -13.42620
      H1     8.71694   14.06127  -13.87372
       H    11.40028   12.54797  -11.52699
       O    10.77150   13.12195  -11.96396
      H1    10.54577   12.57534  -12.74546
       H    12.23671   10.63797  -11.24138
       O    12.69918   11.38255  -10.91302
      H1    12.60863   11.25731   -9.94881
       H     9.96919   17.44697  -14.81616
       O    10.32230   16.61772  -15.12985
      H1     9.80293   15.91291  -14.63985
       H     8.52152    8.18568  -16.93128
       O     9.42787    8.51961  -16.89516
      H1     9.54878    9.17938  -17.58699
       H    12.83310    8.38387  -12.49617
       O    11.94496    8.72797  -12.23115
      H1    11.65142    8.04819  -11.53899
       H     4.62171    9.21963  -16.33504
       O     4.73153    8.52355  -16.99797
      H1     4.78776    9.06287  -17.80341
       H     7.87569   12.59187  -15.64166
       O     7.86963   13.56112  -15.58459
      H1     7.05725   13.94256  -16.02338
       H     9.71363    4.39133  -14.31849
       O     9.80750    4.83801  -13.49341
      H1     9.57677    5.72546  -13.65974
       H     5.78754   13.59082  -18.77690
       O     6.34627   12.99343  -19.26371
      H1     7.22105   13.00307  -18.84239
       H     9.12393   13.90986  -18.87218
       O     9.01882   13.25119  -18.17728
      H1     8.70712   13.65360  -17.38119
       H     9.09836   10.78053  -19.51643
       O     9.87338   10.25965  -19.27168
      H1    10.67346   10.80675  -19.25900
       H    11.18788   10.85262  -14.49576
       O    10.33021   11.20043  -14.04472
      H1    10.00782   10.50466  -13.45283
       H     9.62699    7.96598  -15.04133
       O     9.66880    7.59666  -14.13278
      H1    10.56837    7.79600  -13.81440
       H     6.54926   11.41370  -12.55110
       O     5.61495   11.61582  -12.46547
      H1     5.60565   12.57344  -12.22444
       H     6.20275   10.90773  -15.49870
       O     5.25779   10.76223  -15.26588
      H1     5.14366   10.78292  -14.35543
       H     6.10670    7.43593  -15.87569
       O     6.50657    6.72499  -15.32869
      H1     6.92588    7.17690  -14.61762
       H     6.94107    6.93838  -11.57907
       O     6.60435    7.61239  -12.17056
      H1     5.64608    7.61873  -12.09599
       H    12.31374    9.38103  -18.30330
       O    12.85607    8.59842  -18.28408
      H1    12.26333    7.86910  -18.46341
       H    10.82933   12.49109  -18.09707
       O    11.72838   12.04878  -18.14278
      H1    12.03153   11.97741  -17.23440
       H     8.88288   10.85113  -15.13957
       O     8.12892   10.92472  -15.74415
      H1     8.32645   10.27713  -16.44297

