69
frame 0 | Written by MDAnalysis XYZWriter (release 2.4.3)
       H    -7.40015   -0.58482   14.32594
       O    -6.64444   -0.08263   14.09764
      H1    -5.91589   -0.68069   13.99945
       H    -1.65765   -0.78452   12.64407
       O    -2.39047   -0.77058   11.99468
      H1    -2.94201   -0.01047   12.15683
       H    -1.21617    4.74224   15.00610
       O    -2.00581    4.58171   15.48630
      H1    -1.75986    4.04708   16.28167
       H    -0.41895   -1.13328   17.86286
       O     0.46306   -1.02273   18.21892
      H1     1.07288   -1.48657   17.60977
       H    -4.85264    3.75819   18.75027
       O    -4.01029    3.80147   18.24535
      H1    -4.14610    4.57958   17.71840
       H     0.26249   -0.73342   13.96960
       O     0.40834    0.21791   13.85257
      H1     0.34435    0.43426   14.81782
       H    -1.00676    2.32212   17.16499
       O    -1.00234    3.08200   17.84775
      H1    -1.68717    2.79278   18.51509
       H    -0.84714   -2.95568   13.07179
       O    -0.94879   -2.18532   13.70847
      H1    -1.77066   -2.38137   14.14303
       H     3.29543    0.08551   15.20372
       O     2.75476   -0.04646   16.00127
      H1     3.22149    0.22276   16.78020
       H     1.30436    0.88404   16.23801
       O     0.34233    1.13291   16.31898
      H1     0.10089    0.46265   16.97911
       H    -7.61486   -1.69103   18.27825
       O    -7.58257   -1.33325   17.39296
      H1    -6.61996   -1.27670   17.24564
       H    -3.71703   -1.36382   13.08549
       O    -4.34582   -1.81214   13.70212
      H1    -4.51794   -2.67401   13.27211
       H    -6.10350    2.31312   16.47186
       O    -5.21344    1.93578   16.64249
      H1    -4.67043    2.54297   17.22374
       H    -1.74889   -5.67566   18.73732
       O    -2.63061   -5.51162   19.00951
      H1    -2.54067   -5.05080   19.83604
       H     0.93390    3.12370   18.32889
       O     1.78525    3.39721   18.62187
      H1     2.34479    2.69631   18.27028
       H    -2.98160   -3.68997   16.19904
       O    -2.26814   -3.06732   16.02950
      H1    -2.30932   -2.33727   16.71900
       H    -1.16402   -4.18930   16.79865
       O    -0.48584   -4.78333   17.17314
      H1    -0.23928   -5.23514   16.34154
       H     0.59718   -4.22936   18.27321
       O     0.96839   -3.70720   19.03694
      H1     0.76735   -2.82698   18.70910
       H    -4.71619   -1.32053   15.53519
       O    -4.84059   -0.78060   16.29403
      H1    -5.09707    0.08928   16.01106
       H    -2.71193   -0.91930   18.43801
       O    -2.44409   -0.91048   17.46230
      H1    -3.28436   -0.74449   16.99612
       H    -3.39434    3.80233   14.68221
       O    -4.29324    3.51459   14.33168
      H1    -4.59856    2.83876   14.99745
       H    -4.79632   -5.50712   15.90826
       O    -3.87336   -5.50809   16.22130
      H1    -3.88574   -5.51827   17.17522
       H     0.56446   -2.49939   14.62183
       O     1.25799   -2.87099   15.18966
      H1     1.99360   -2.25568   15.09998

