69
frame 3 | Written by MDAnalysis XYZWriter (release 2.4.3)
       H    15.61054    5.38758   11.78819
       O    15.12509    6.24186   11.81351
      H1    14.32267    6.08144   12.28968
       H    14.35224    3.21219    9.22666
       O    15.15153    3.67123    9.53225
      H1    15.15785    4.55639    9.15329
       H     9.68320    9.39106   13.02465
       O    10.22969    9.44479   12.23120
      H1    10.27345    8.58105   11.84701
       H    12.59442    1.71213    5.37508
       O    13.19892    2.41995    5.60968
      H1    13.14510    3.03560    4.86051
       H    12.83047    5.12950    3.83326
       O    12.70967    4.17882    3.65739
      H1    11.81409    3.96010    3.96694
       H     9.42300    7.66285    4.20913
       O     9.16281    6.89186    4.72410
      H1     9.72209    6.12726    4.45016
       H    14.77563   10.05976    9.16773
       O    15.02203    9.47118    9.97154
      H1    14.79425    8.57985    9.61190
       H    11.63930    7.79919    7.15809
       O    11.49387    8.39016    6.35577
      H1    10.51202    8.33670    6.28801
       H    15.53572    6.99979    7.01608
       O    15.21605    7.33195    6.18257
      H1    14.31573    7.03511    6.02157
       H     8.57293    7.48413    6.60379
       O     8.68408    7.73540    7.51547
      H1     8.12371    8.51757    7.56580
       H     7.42637    6.52920    7.64262
       O     6.76010    5.85227    7.49519
      H1     5.91739    6.31522    7.70834
       H    13.17595    7.30578    3.83094
       O    13.08153    6.63661    4.54127
      H1    12.19658    6.85266    4.80840
       H    11.44836    6.05793   11.84434
       O    10.94394    6.66992   11.25504
      H1     9.99103    6.46578   11.36461
       H    12.54385    9.73753    5.57778
       O    13.09124   10.49694    5.32040
      H1    13.97481   10.11881    5.14919
       H    11.38312    7.04728    9.48361
       O    11.79778    6.77895    8.63544
      H1    11.49209    5.86062    8.45779
       H    12.56649    6.55717   13.55335
       O    12.67862    5.65048   13.21920
      H1    13.29719    5.23378   13.82213
       H    11.24284    3.77571    7.12900
       O    11.18233    4.07502    8.02847
      H1    10.34072    3.64929    8.27714
       H    10.33473    3.54780   11.61351
       O    10.90046    3.27135   12.30371
      H1    11.59318    3.89507   12.43646
       H    12.05268    2.74848    8.81969
       O    12.78959    2.32242    9.28589
      H1    12.36451    1.51094    9.64912
       H    13.82764    6.24787    8.76560
       O    14.73354    6.23177    9.07497
      H1    14.69465    6.23419   10.02838
       H     8.53169    3.54525    9.84747
       O     9.32326    2.98925    9.62703
      H1     8.98095    2.08712    9.39620
       H    10.40923    2.84840    4.75762
       O    10.01560    3.69949    4.59913
      H1     9.09512    3.48227    4.61579
       H     7.28205    5.19880    9.37483
       O     7.56227    4.84879   10.24061
      H1     7.57109    5.68072   10.76232

