69
frame 3 | Written by MDAnalysis XYZWriter (release 2.4.3)
       H   -18.63884   -0.40365   -5.34703
       O   -18.64347    0.55571   -5.35171
      H1   -18.09469    0.72436   -4.55167
       H   -17.24162   -5.77510   -2.87538
       O   -18.14338   -5.70495   -2.44678
      H1   -18.73357   -5.32468   -3.13037
       H   -17.53032   -2.14820  -12.21901
       O   -16.87214   -1.57394  -12.62697
      H1   -16.75252   -1.80771  -13.56541
       H   -16.81575   -4.92136   -6.32932
       O   -17.53788   -5.21773   -5.74818
      H1   -18.02887   -4.37906   -5.48257
       H   -18.00897    3.92922  -10.27553
       O   -18.35718    3.21345  -10.77725
      H1   -18.79359    2.55286  -10.22552
       H   -15.56794   -2.19505  -11.76573
       O   -14.80250   -2.57212  -11.29024
      H1   -14.92875   -3.53677  -11.23903
       H   -14.72270   -5.46604   -3.69823
       O   -15.58736   -5.14239   -3.70119
      H1   -16.01591   -5.42159   -4.47266
       H   -17.32174   -3.43841  -10.36792
       O   -18.06055   -2.95916  -10.72399
      H1   -18.38083   -2.65151   -9.87292
       H   -15.61631   -1.38210   -8.44880
       O   -15.01273   -2.13720   -8.47132
      H1   -14.74085   -2.12534   -9.39046
       H   -15.66205   -3.62352   -4.14685
       O   -15.86879   -2.70317   -4.28404
      H1   -15.01746   -2.31097   -4.59538
       H   -14.58634   -5.16967   -7.38708
       O   -14.81790   -4.54750   -6.65681
      H1   -14.89930   -3.66406   -7.11657
       H   -13.33559   -1.08008   -9.00642
       O   -12.42052   -1.16054   -9.19977
      H1   -12.36044   -0.55092  -10.00646
       H   -19.72905   -2.14481   -7.75859
       O   -18.82069   -2.37585   -7.88429
      H1   -18.36178   -1.50832   -7.84546
       H   -19.01153   -7.68275   -9.05091
       O   -18.32996   -8.12383   -8.48075
      H1   -18.57632   -7.98953   -7.54447
       H   -18.20021   -2.41707   -6.13713
       O   -18.19842   -2.46123   -5.15807
      H1   -17.22097   -2.45176   -4.88727
       H   -17.46699    0.33580   -7.00414
       O   -17.42404   -0.24367   -7.74660
      H1   -17.86488    0.19510   -8.44918
       H   -15.38703    1.85681   -9.79596
       O   -14.90303    1.44389   -9.07117
      H1   -15.11878    1.96122   -8.29689
       H   -18.30468   -7.32789  -12.16796
       O   -17.39073   -7.42396  -11.94871
      H1   -17.14891   -6.64135  -11.57461
       H   -18.95978   -2.49841   -3.65633
       O   -18.98070   -2.22968   -2.69554
      H1   -19.75695   -1.65232   -2.64882
       H   -16.11645   -2.59120   -2.62067
       O   -16.49053   -2.59512   -1.72398
      H1   -17.47541   -2.61002   -1.94794
       H   -19.38428   -7.94161   -4.94554
       O   -18.88137   -7.81879   -5.75251
      H1   -18.38887   -6.97300   -5.61260
       H   -15.76572    1.08664   -3.31834
       O   -16.14074    0.52705   -3.97763
      H1   -16.29975   -0.22416   -3.44998
       H   -15.90120   -4.87412  -12.32437
       O   -15.63804   -5.04080  -11.39916
      H1   -15.13617   -5.86862  -11.26859

