69
frame 3 | Written by MDAnalysis XYZWriter (release 2.4.3)
       H     8.94549    4.36417   -8.69839
       O     9.27724    5.16027   -8.34571
      H1     9.20262    4.92673   -7.44346
       H    13.01292    4.07562   -6.25135
       O    12.82507    4.57984   -5.44879
      H1    13.04967    5.49352   -5.58793
       H    11.05528    7.55787   -1.48286
       O    11.20922    8.33863   -0.94589
      H1    10.60340    8.93560   -1.36728
       H    11.15421    2.32006   -2.15680
       O    11.63610    2.55277   -1.39333
      H1    12.39716    3.08931   -1.77178
       H     8.99796    9.62787   -2.28712
       O     9.00342    8.87949   -2.98405
      H1     8.61167    9.30454   -3.76954
       H     5.08664    2.90461    0.57674
       O     5.53357    2.75424   -0.27365
      H1     5.23331    3.35156   -0.98775
       H     8.84537    9.55392   -0.07925
       O     9.01149   10.30833   -0.64581
      H1     8.50847   11.04389   -0.35867
       H    10.83535    4.83310    1.23383
       O    10.61598    3.91726    1.02544
      H1    11.17641    3.69130    0.22716
       H     8.23925    6.08097    3.40969
       O     7.79497    5.47410    2.81426
      H1     8.40544    5.49734    2.09103
       H     8.25461    7.24713    0.39674
       O     8.93228    6.61022    0.19975
      H1     8.49161    5.75535   -0.04518
       H    10.82330    0.66878   -3.71271
       O    10.09207    1.03006   -3.12266
      H1     9.34893    0.99406   -3.71997
       H     5.93805    5.29639   -5.65306
       O     6.49985    4.77977   -6.21822
      H1     6.86079    4.07874   -5.59019
       H     9.29288    8.19001   -6.32621
       O     8.75203    8.59575   -7.03028
      H1     8.19617    7.87499   -7.38440
       H    12.39726    5.23450   -2.30651
       O    11.78461    5.96995   -2.43704
      H1    12.01792    6.33903   -3.28831
       H    10.05127    4.68477   -3.91264
       O    10.23976    4.31288   -4.78692
      H1    11.20755    4.40253   -4.95636
       H     7.52432    2.20189   -3.28423
       O     7.33628    1.58181   -2.53750
      H1     8.02819    1.74726   -1.85784
       H     3.94478    4.37487   -2.13532
       O     4.92326    4.23484   -2.31130
      H1     5.22630    5.16009   -2.29795
       H     7.18322    6.00524   -3.08445
       O     6.34005    6.44865   -2.87971
      H1     6.49675    7.33554   -3.24202
       H    10.36325    6.63246    1.38523
       O    11.03416    6.45636    2.08036
      H1    11.74349    7.06708    1.94389
       H     8.02663    1.93943   -5.31891
       O     7.86434    2.85607   -4.89356
      H1     8.74960    3.28787   -4.97894
       H    10.51818    6.41371   -4.92404
       O    10.36837    7.35245   -5.14449
      H1    10.45008    7.87617   -4.35963
       H     7.26981    3.40585   -0.38796
       O     8.13471    3.86226   -0.38967
      H1     8.82631    3.51207    0.21318
       H     8.93906    6.21373   -2.38633
       O     8.74834    5.39771   -2.82410
      H1     8.57864    4.73555   -2.08734

