69
frame 3 | Written by MDAnalysis XYZWriter (release 2.4.3)
       H    17.11740  -12.58671   -5.58742
       O    16.29004  -12.27526   -5.97171
      H1    16.40240  -11.31642   -6.14375
       H    15.84983  -14.10347    0.73249
       O    16.05863  -13.25811    0.32489
      H1    16.41939  -13.63942   -0.49596
       H    10.03994  -13.32133   -0.76075
       O     9.16086  -13.27192   -0.33216
      H1     8.72197  -12.47718   -0.63012
       H    13.14782  -10.47478   -0.35559
       O    12.71345   -9.67596   -0.52701
      H1    12.01455   -9.98591   -1.19850
       H    12.93667  -15.09440   -1.93778
       O    13.07040  -15.63507   -2.71903
      H1    13.31467  -16.49259   -2.30050
       H    13.57155  -12.43239    1.65199
       O    13.77856  -12.09745    0.75330
      H1    14.65511  -12.51406    0.57761
       H     8.55593  -14.18678   -1.85854
       O     7.94903  -14.38210   -2.61858
      H1     8.51324  -14.39566   -3.36255
       H    15.64634  -11.76733   -4.11126
       O    15.45636  -11.59441   -3.18046
      H1    15.25073  -10.68198   -3.00510
       H    15.15927  -16.27419   -5.86885
       O    14.84452  -17.14408   -5.58556
      H1    15.45583  -17.77008   -6.05317
       H    12.72544  -13.51032   -0.26687
       O    11.93547  -13.81140   -0.70943
      H1    11.77823  -14.68870   -0.37721
       H    13.93950   -9.19839   -1.64842
       O    14.50037   -8.99218   -2.42424
      H1    15.14165   -8.32575   -2.23033
       H    12.07673  -11.46801   -4.81259
       O    11.62816  -10.65329   -5.05962
      H1    10.81070  -10.78914   -5.59429
       H    10.30223  -17.11121   -5.70929
       O    10.88070  -16.72385   -5.03814
      H1    11.28206  -15.96242   -5.50670
       H     8.65695  -11.17365   -6.17990
       O     9.37010  -11.80759   -6.21024
      H1     9.55243  -11.79366   -7.21554
       H    11.05247  -14.00353   -6.04869
       O    11.80995  -14.52171   -6.30814
      H1    11.52736  -14.92306   -7.13041
       H    16.76609  -14.59644   -2.47717
       O    17.02171  -13.74095   -2.16985
      H1    16.49294  -13.07501   -2.62759
       H    12.07504   -8.40913   -4.88361
       O    12.60129   -7.82420   -4.30102
      H1    13.07009   -8.40776   -3.68890
       H    13.49759  -14.47539   -6.45119
       O    14.44975  -14.37220   -6.54761
      H1    14.65397  -13.49335   -6.23445
       H    10.64330  -18.42190   -2.31624
       O    10.40929  -17.49611   -2.21637
      H1    10.73468  -17.19946   -3.07205
       H    13.19264  -13.76683   -3.34560
       O    13.07622  -12.78335   -3.34336
      H1    13.90736  -12.35423   -3.11894
       H    15.45178  -16.73368   -3.49274
       O    16.04620  -16.67989   -2.74444
      H1    15.44603  -16.97772   -2.02086
       H    10.98134  -11.67997   -1.32433
       O    11.10608  -11.17312   -2.12732
      H1    11.90415  -11.55381   -2.58151
       H     9.77798  -10.05696   -2.55999
       O     9.19370   -9.40584   -3.03037
      H1     9.51499   -9.38120   -3.92543

