69
frame 4 | Written by MDAnalysis XYZWriter (release 2.4.3)
       H    -5.22590   -8.77580    6.18553
       O    -5.54600   -7.87330    6.19243
      H1    -6.18762   -7.82862    6.89925
       H    -8.12674   -5.49321    7.38782
       O    -8.23347   -4.52577    7.35356
      H1    -7.41110   -4.15803    7.63063
       H    -9.58013   -2.73787    2.31516
       O    -8.72360   -2.33574    2.42783
      H1    -8.78816   -1.74862    3.19359
       H    -0.37398   -6.03352    5.40015
       O     0.21422   -6.65461    5.81008
      H1    -0.37649   -7.13244    6.42919
       H    -0.97944   -2.44830    4.34036
       O    -0.07606   -2.46046    4.49771
      H1     0.02874   -2.57531    5.45709
       H    -9.93320   -5.50822    3.04781
       O    -9.79396   -4.99009    3.87677
      H1    -8.83472   -5.06995    4.09409
       H    -5.31612   -5.96359    5.76615
       O    -4.86105   -5.09016    5.84258
      H1    -5.60993   -4.44931    5.67562
       H    -9.78967   -3.63163    6.65394
       O   -10.55929   -3.12156    6.83611
      H1   -11.00993   -2.98259    6.02020
       H    -5.50840   -0.37095    5.85715
       O    -5.19076   -1.27531    5.65089
      H1    -5.81027   -1.72716    5.07053
       H    -4.52798   -8.19573   11.55467
       O    -4.94417   -7.41416   11.30448
      H1    -4.65348   -7.40366   10.39601
       H   -10.17734   -6.31388    5.42495
       O   -10.11417   -7.06266    6.02684
      H1    -9.88715   -7.87505    5.47551
       H    -6.92464   -2.10840   10.38864
       O    -6.61439   -2.96799   10.80865
      H1    -6.19419   -2.72874   11.63021
       H    -8.86526   -0.31327    5.41303
       O    -8.84110   -0.38637    4.47953
      H1    -8.49398    0.35881    3.97159
       H    -1.16757   -4.38857    9.13038
       O    -1.63337   -5.22813    9.02470
      H1    -2.55956   -5.00452    9.00228
       H    -3.63380   -1.19032    4.86574
       O    -2.85471   -0.95418    4.41554
      H1    -2.42805   -0.29645    5.00433
       H    -5.91222   -3.34913    3.22576
       O    -6.53213   -3.00974    3.92292
      H1    -7.40312   -2.91515    3.55432
       H    -2.93962   -4.82061    5.59733
       O    -1.94492   -4.63087    5.79645
      H1    -1.81284   -5.03660    6.69586
       H    -3.40107   -7.71190    4.14611
       O    -3.74852   -7.84802    3.26809
      H1    -4.57053   -8.36127    3.33958
       H    -5.06349   -4.31672    9.67764
       O    -4.57377   -4.84384    9.00943
      H1    -4.68638   -4.43256    8.16814
       H    -3.14460   -2.07036    2.87987
       O    -3.39506   -2.44250    1.99768
      H1    -4.03972   -1.83599    1.65794
       H    -7.68548   -7.58801    8.75696
       O    -7.85580   -7.09388    7.98722
      H1    -8.04235   -7.71672    7.28299
       H    -2.90235   -4.27414    2.38536
       O    -2.58600   -5.19250    2.30164
      H1    -3.27153   -5.68323    2.69615
       H    -6.57496   -6.61559    2.43507
       O    -6.25372   -5.79496    2.02544
      H1    -5.49921   -6.00692    1.49070

