69
frame 4 | Written by MDAnalysis XYZWriter (release 2.4.3)
       H     5.45933   -1.72345    3.01804
       O     5.40856   -0.91055    2.55936
      H1     6.24373   -0.41774    2.68334
       H     3.89708   -8.04844    3.62540
       O     4.59950   -7.99807    2.94622
      H1     4.20516   -7.64593    2.09242
       H     0.84445   -7.34310    1.87570
       O     1.11366   -7.68130    0.96733
      H1     1.98524   -7.23681    0.81566
       H     0.41201   -6.82144   -3.69175
       O     0.84926   -5.95455   -3.95038
      H1     1.81980   -6.15956   -3.88721
       H     6.09718   -7.04857    4.19119
       O     6.41913   -6.14689    4.32201
      H1     5.60684   -5.53450    4.21555
       H     6.00207   -2.36757    0.94615
       O     6.12432   -3.03543    0.27053
      H1     6.88827   -2.72044   -0.18997
       H     1.97904   -5.66325    3.73452
       O     2.24606   -6.52658    4.13055
      H1     1.45091   -6.79472    4.68278
       H     6.76197   -5.41303    2.56188
       O     7.43467   -5.09358    1.89448
      H1     6.94078   -4.47387    1.32332
       H     5.15222   -9.52880    2.50602
       O     5.56979  -10.28715    2.06666
      H1     6.52539  -10.07079    2.17373
       H     1.88994  -11.05279    1.37477
       O     2.19361  -10.45088    2.05000
      H1     1.62708   -9.74190    1.81485
       H     1.35283   -1.45006   -1.53101
       O     1.57471   -2.27161   -1.95637
      H1     1.99692   -2.11637   -2.75903
       H     0.20410   -3.40537   -2.31442
       O    -0.36152   -4.20808   -2.42698
      H1     0.12418   -4.76178   -3.06037
       H     4.50614   -3.47649    5.03128
       O     4.94903   -3.39605    4.17255
      H1     4.28930   -3.64499    3.50910
       H     2.05870   -3.91887    2.19391
       O     1.87416   -4.01242    3.09962
      H1     1.15298   -3.43466    3.31630
       H    -1.72508   -6.66979   -0.44698
       O    -1.28512   -7.54185   -0.64218
      H1    -0.53836   -7.60656   -0.03469
       H     0.91100   -9.56317   -1.74119
       O     1.24505  -10.18660   -1.01591
      H1     1.63976   -9.51406   -0.43848
       H     4.60588   -3.78876   -2.85322
       O     5.35006   -4.12949   -2.38880
      H1     5.27502   -3.61872   -1.57675
       H     4.59914   -6.71244    0.04350
       O     3.87076   -6.53247    0.69767
      H1     3.75867   -5.58396    0.67075
       H     2.21606   -3.15569    0.26178
       O     2.97161   -3.60956    0.61111
      H1     3.71603   -3.02709    0.50416
       H     6.63321   -8.19944   -3.90451
       O     5.74689   -8.11262   -3.60669
      H1     5.79575   -7.84462   -2.67412
       H     5.79222   -5.71444   -1.48037
       O     6.07774   -6.55045   -1.18384
      H1     6.97915   -6.48518   -0.86779
       H     0.87580   -0.65624    1.91921
       O     1.21244   -1.21925    1.21114
      H1     0.48307   -1.44938    0.64602
       H     5.34659  -10.08116    0.23618
       O     5.29961  -10.26492   -0.69589
      H1     4.69274  -11.05740   -0.73773

