69
frame 5 | Written by MDAnalysis XYZWriter (release 2.4.3)
       H   -12.46100   19.89491   -4.82662
       O   -11.63799   19.37957   -4.66184
      H1   -11.88938   18.49427   -4.95997
       H   -10.14996   16.72316   -9.38420
       O   -10.52282   17.05519  -10.25236
      H1    -9.79112   16.98599  -10.91986
       H    -7.54583   11.46865   -4.21827
       O    -7.55043   12.44839   -4.25315
      H1    -7.38254   12.66956   -5.18868
       H   -12.87250   14.37608   -4.22292
       O   -13.10843   14.83387   -5.03736
      H1   -12.52590   14.48297   -5.71756
       H   -10.37464   16.03115   -3.46988
       O   -10.85891   16.85724   -3.39109
      H1   -10.12323   17.53612   -3.22461
       H    -6.58060   14.49048   -9.77258
       O    -7.43251   14.77701   -9.45590
      H1    -7.29809   15.70805   -9.24146
       H   -10.16856   16.64599   -6.70830
       O   -10.85495   16.50137   -7.39759
      H1   -11.58516   17.08389   -7.06326
       H    -8.55240   18.26514   -6.19669
       O    -8.75927   17.36337   -6.03421
      H1    -7.94561   16.93165   -6.33507
       H    -7.08543   16.50028   -2.16629
       O    -6.48798   16.45551   -1.36921
      H1    -6.08547   15.52366   -1.45069
       H    -3.64127   16.54850   -4.92944
       O    -4.43060   17.07784   -5.03919
      H1    -4.49946   17.53680   -4.18488
       H    -4.39191   12.09680   -3.58540
       O    -4.65683   12.93701   -3.94529
      H1    -5.67471   12.88988   -3.99246
       H    -6.76352   16.97998   -8.49134
       O    -7.06873   17.58381   -9.16006
      H1    -6.34379   18.25022   -9.12355
       H    -8.49077   18.00377   -4.07609
       O    -8.35401   17.85551   -3.14239
      H1    -7.93992   18.67654   -2.83161
       H    -6.16751   15.23415   -6.70904
       O    -6.26825   16.17942   -6.75687
      H1    -5.71256   16.49273   -6.01721
       H    -9.56950   13.15163   -8.54736
       O    -9.45356   12.98017   -7.57622
      H1   -10.27932   13.34146   -7.25228
       H   -12.57930   13.96754   -7.97391
       O   -11.95156   14.12944   -7.28567
      H1   -11.56848   15.01286   -7.41793
       H    -4.07261   18.60199   -2.07418
       O    -4.76136   18.33894   -2.71768
      H1    -5.45056   18.00204   -2.15059
       H    -5.92281   12.42943   -6.79246
       O    -6.51481   13.25877   -6.81415
      H1    -7.34140   12.98672   -7.14634
       H    -3.02707   20.17020   -5.52510
       O    -2.77631   19.33991   -5.93707
      H1    -3.19280   18.64973   -5.41242
       H    -3.29602   15.47673   -8.39763
       O    -3.67740   16.08173   -9.03598
      H1    -3.71537   16.91761   -8.56371
       H   -10.20015   13.59192  -10.77932
       O    -9.39889   13.08018  -10.38657
      H1    -8.75367   13.75865  -10.28342
       H    -4.08386   19.60404   -9.07714
       O    -3.68242   18.82664   -8.66429
      H1    -3.22159   19.18591   -7.89158
       H   -10.34662   13.54440   -3.24078
       O    -9.45681   13.75266   -3.00037
      H1    -8.81138   13.21302   -3.54744

