69
frame 4 | Written by MDAnalysis XYZWriter (release 2.4.3)
       H    10.76900    7.02464   19.12208
       O    11.24883    6.44701   19.76087
      H1    11.47032    5.64832   19.28672
       H    12.96592    4.68211   17.57262
       O    12.10165    4.53067   17.99093
      H1    11.77118    3.59758   17.94967
       H    10.61895    6.07177   16.56341
       O     9.76943    6.41417   16.22238
      H1     9.22939    5.60677   16.06790
       H     4.82433    4.37941   17.93516
       O     4.38810    5.18567   18.34836
      H1     4.25755    5.81195   17.63204
       H    11.06470    3.09159   14.77950
       O    11.54857    2.37531   15.17881
      H1    12.32713    2.23892   14.68349
       H     2.74092    6.05801   16.23913
       O     3.50428    6.58385   15.98844
      H1     3.24822    7.52815   15.99562
       H     4.76309    3.49912   14.51713
       O     4.76320    2.66915   15.04462
      H1     3.91176    2.62836   15.47772
       H     4.15048   -1.62259   17.49335
       O     4.29050   -0.79964   17.01338
      H1     5.16637   -0.85971   16.63084
       H     4.47472    5.62499   14.56280
       O     4.75062    5.00181   13.88172
      H1     4.24214    5.20117   13.08525
       H    10.17572    0.94887   14.37334
       O     9.75747    0.10928   14.40095
      H1     8.81139    0.34534   14.13393
       H     6.31181    2.09182   13.98078
       O     7.19556    1.99558   13.55144
      H1     6.88453    2.05970   12.63900
       H     2.55232    2.54048   19.67439
       O     3.18811    2.03553   19.13040
      H1     3.94743    2.62604   19.13649
       H     7.88881    6.67862   15.29993
       O     6.94866    6.58486   15.50357
      H1     6.66386    5.83988   14.99117
       H     0.84752    6.07206   17.44828
       O     1.03701    5.44193   16.71020
      H1     1.31375    4.56702   17.03273
       H     1.57762    2.40807   15.95634
       O     2.20493    2.95744   16.48839
      H1     2.42857    2.37598   17.31418
       H     5.62421    2.38941   17.07026
       O     5.76923    2.93111   17.85812
      H1     6.68663    2.84861   18.12992
       H     9.07715    4.13216   14.33825
       O     8.48568    3.82566   14.98203
      H1     8.04875    3.14200   14.45491
       H    10.13426    2.19403   18.98894
       O    10.90441    1.78705   18.56102
      H1    11.31184    1.27732   19.29022
       H     8.18171   -1.52900   17.34825
       O     7.42223   -2.16837   17.53075
      H1     7.28633   -2.66908   16.69666
       H     5.82453    6.12947   18.76745
       O     6.68070    6.51081   18.50097
      H1     6.74428    6.29146   17.57768
       H     4.12248    1.39483   13.69486
       O     3.97349    0.77207   12.98141
      H1     3.07218    0.98590   12.65661
       H     9.78586   -0.00820   16.08633
       O     9.75887   -0.30304   17.01368
      H1    10.39761    0.34278   17.34412
       H     5.89234    7.77440   15.84512
       O     5.50850    8.65346   16.02228
      H1     5.31961    8.71669   16.96669

