69
frame 5 | Written by MDAnalysis XYZWriter (release 2.4.3)
       H   -15.96088  -12.56074   -0.39047
       O   -16.52201  -12.53391   -1.18891
      H1   -17.34021  -13.09464   -1.10377
       H   -18.58201  -12.76220  -11.26617
       O   -17.79679  -12.32816  -11.63610
      H1   -17.35542  -11.83342  -10.92061
       H   -14.77922  -17.70289   -7.90229
       O   -14.23070  -18.50279   -7.78498
      H1   -14.06544  -18.77003   -8.69852
       H   -17.49054  -15.37056   -7.63678
       O   -16.66668  -15.75733   -8.05439
      H1   -16.84150  -15.44305   -8.94122
       H   -17.66476  -15.15787   -4.20408
       O   -18.60669  -15.01375   -4.17147
      H1   -19.09638  -15.85956   -4.01447
       H   -16.64072  -10.06388   -9.49159
       O   -16.56336  -10.45661  -10.36366
      H1   -16.19420   -9.91274  -11.01952
       H   -17.73879  -18.97737   -7.13497
       O   -17.54787  -18.38876   -7.90489
      H1   -17.26312  -17.52400   -7.67378
       H   -19.78794  -13.50536   -1.64477
       O   -18.93443  -13.89516   -1.55726
      H1   -18.70296  -14.26582   -2.42381
       H   -16.85012   -9.69586   -5.21557
       O   -16.63300   -9.78357   -4.24830
      H1   -17.49875   -9.81373   -3.78708
       H   -18.93829  -15.51668   -0.59510
       O   -18.44578  -16.31554   -0.38482
      H1   -17.64122  -15.87362   -0.00796
       H   -15.75989  -14.81516  -13.06646
       O   -15.32730  -15.08757  -13.84895
      H1   -14.60168  -14.41317  -13.86860
       H   -19.74796  -15.79371   -7.16575
       O   -19.16549  -15.10532   -6.81855
      H1   -18.99011  -15.34220   -5.88063
       H   -16.09134  -11.31826   -3.82909
       O   -15.58226  -12.17198   -3.67838
      H1   -15.84716  -12.41038   -2.74767
       H   -18.09574  -18.53022  -11.72877
       O   -17.31822  -18.20726  -12.19953
      H1   -17.17059  -17.25828  -11.99370
       H   -18.19269  -17.80304   -1.53658
       O   -18.46082  -18.52166   -2.06908
      H1   -18.03260  -19.27391   -1.70054
       H   -14.20848  -13.04561   -4.86271
       O   -13.34697  -13.26969   -5.18554
      H1   -13.09129  -12.52701   -5.72447
       H   -14.51323  -19.24853   -4.86922
       O   -14.07134  -18.39462   -5.11373
      H1   -13.81634  -18.43542   -6.08543
       H   -14.68895  -12.16359   -8.35793
       O   -14.61661  -11.82521   -7.44222
      H1   -15.47690  -11.43994   -7.38178
       H   -15.58045  -14.21508  -10.21657
       O   -16.36613  -14.52286  -10.68384
      H1   -16.83726  -13.71825  -10.93087
       H   -15.05377  -15.34933   -3.59613
       O   -15.70522  -15.53291   -4.33508
      H1   -15.39724  -16.43097   -4.64969
       H   -13.19607  -14.09720   -9.62755
       O   -14.06237  -13.92255   -9.32451
      H1   -14.07788  -14.41933   -8.49343
       H   -17.69195  -11.00673   -7.93482
       O   -17.09561  -10.32636   -7.59024
      H1   -17.47371   -9.52840   -8.03945
       H   -14.88845  -15.38995   -7.08913
       O   -13.89173  -15.56863   -6.98251
      H1   -13.62582  -14.83741   -6.42306

