69
frame 5 | Written by MDAnalysis XYZWriter (release 2.4.3)
       H    19.64446    0.52489   10.65751
       O    18.81996    0.57083   11.20155
      H1    18.78013    1.46333   11.54840
       H    17.94645    4.19973    6.17130
       O    17.96636    3.81586    7.11227
      H1    17.04251    3.67336    7.42881
       H    17.24414    5.81066    5.49385
       O    18.03406    5.52184    5.05088
      H1    18.77800    6.01546    5.35032
       H    16.27922    5.79035   10.91422
       O    15.54048    6.45742   11.04088
      H1    14.87567    6.04247   11.60947
       H    18.42267    5.51090    9.27306
       O    18.03769    5.37873   10.17078
      H1    18.19063    4.45892   10.13233
       H    14.71345    2.86840    7.78981
       O    15.20662    3.57373    7.33679
      H1    14.78026    4.39920    7.58417
       H    19.13277    6.83926    7.72236
       O    19.44530    5.89038    7.72878
      H1    18.61987    5.29734    7.56373
       H    14.74530    3.03246    5.38410
       O    14.82837    2.40869    4.60616
      H1    14.18021    2.72779    3.96977
       H    14.65149   -0.67936    8.55112
       O    15.10383   -1.25370    9.25636
      H1    15.56303   -1.99008    8.75766
       H    16.45733   -0.08281    3.38501
       O    16.42338    0.05438    2.44981
      H1    15.99351   -0.66209    1.98065
       H    18.81683    2.18292    9.90381
       O    19.21704    2.92035    9.44690
      H1    18.69751    3.04225    8.64987
       H    16.94097    8.98479    4.34926
       O    16.45834    8.89578    5.19396
      H1    16.34642    7.97558    5.42414
       H    16.57562   -1.39890    5.17313
       O    16.67032   -2.34516    4.96475
      H1    17.24102   -2.70424    5.69193
       H    13.69100    0.91676    7.85311
       O    13.98547    0.11501    7.35173
      H1    14.68942    0.44996    6.77101
       H    17.63271    0.87521    8.07823
       O    16.95485    0.83040    8.79516
      H1    16.44113    0.02281    8.78886
       H    15.33395    6.61589    6.70534
       O    15.76459    6.54517    5.87348
      H1    15.06981    6.63211    5.23071
       H    18.86905    0.23114    6.71983
       O    18.61948    1.14647    6.56582
      H1    19.48962    1.57986    6.53235
       H    16.27900    2.45978   10.57096
       O    16.35684    2.57538   11.50650
      H1    16.26184    1.64531   11.85384
       H    17.50255    3.84750    2.01205
       O    17.47874    4.82253    2.16952
      H1    17.57256    5.02342    3.10765
       H    17.08678    0.64704    5.89032
       O    16.30059    0.32707    5.48419
      H1    15.74802    1.11498    5.32633
       H    12.16941    2.54450    8.50824
       O    12.87202    2.01234    8.96366
      H1    12.53741    1.58903    9.76018
       H    13.23001    6.07396    8.27230
       O    14.21217    6.03289    8.20104
      H1    14.55311    6.10527    9.08301
       H    19.69205    8.92225    8.36910
       O    18.78449    8.59270    8.64386
      H1    18.93640    8.11162    9.44493

