69
frame 4 | Written by MDAnalysis XYZWriter (release 2.4.3)
       H    -3.82754   14.15542  -11.58980
       O    -4.31922   13.58568  -10.98438
      H1    -4.70768   12.90886  -11.52831
       H     1.74062   11.53366   -5.54095
       O     2.61896   11.26470   -5.93737
      H1     3.05583   12.01055   -6.37290
       H    -0.54803    7.79102   -3.79173
       O    -0.18401    7.46801   -4.61595
      H1    -0.37010    8.07722   -5.34451
       H     2.02410   12.19977  -13.27684
       O     1.80790   12.08789  -12.32627
      H1     0.81868   12.16554  -12.35588
       H    -0.85643   13.73278  -13.26923
       O    -0.97998   13.92839  -12.37459
      H1    -0.43374   14.65755  -12.12646
       H     0.90830    8.88881   -9.04418
       O     0.21892    8.37951   -9.57921
      H1     0.56180    7.46568   -9.62871
       H     1.19381   14.67514   -8.01848
       O     0.95892   14.39302   -8.91508
      H1     1.74861   14.55270   -9.48240
       H    -3.82084    9.74904   -9.13797
       O    -4.60215   10.24503   -8.80459
      H1    -4.23486   11.12871   -8.58590
       H    -0.42448   12.22201   -4.97319
       O    -0.06372   12.43750   -5.85630
      H1    -0.76427   12.32287   -6.54562
       H    -1.05272   11.32259  -10.43756
       O    -1.12444   11.06018  -11.37341
      H1    -1.50261   11.95484  -11.59196
       H     0.33667   11.26380   -8.38324
       O    -0.31923   11.89620   -8.73984
      H1     0.15545   12.68751   -8.95422
       H    -1.72601    8.94623   -9.55482
       O    -2.53367    9.20956   -9.98447
      H1    -2.25115    9.87858  -10.64082
       H    -1.65172    9.71325   -7.05073
       O    -1.43196    9.36730   -6.15268
      H1    -2.15468    8.71938   -5.89529
       H     2.26817   13.74794  -11.43604
       O     2.75694   14.44392  -10.99208
      H1     2.40366   15.26244  -11.31204
       H     4.53944   13.24687   -6.16184
       O     4.23426   13.17548   -7.06029
      H1     5.01479   13.07331   -7.63628
       H     0.77398   15.74078   -5.94804
       O     1.38707   15.03717   -6.20975
      H1     0.90362   14.27106   -5.99331
       H    -2.79397   14.93739   -6.08520
       O    -2.80800   15.05718   -7.03852
      H1    -1.99977   15.53094   -7.29119
       H    -2.30755   15.40557  -12.01691
       O    -3.06777   16.00627  -11.96572
      H1    -3.25257   16.19170  -11.04220
       H    -1.06417    8.70812  -12.61960
       O    -1.11952    7.77818  -12.90320
      H1    -0.23505    7.52502  -12.80178
       H     1.49136   10.12482  -11.92124
       O     1.54311    9.18754  -11.79765
      H1     0.87391    9.00501  -11.03924
       H     0.26580    9.70267   -6.94724
       O     1.03664    9.80944   -7.50646
      H1     1.66869   10.29435   -6.93007
       H    -3.71707   13.05001   -9.17446
       O    -3.39062   12.70718   -8.32003
      H1    -3.15383   13.50391   -7.80334
       H    -0.26915   15.61524   -8.74698
       O    -0.81765   16.34945   -8.34973
      H1    -0.43755   17.16244   -8.72032

