69
frame 5 | Written by MDAnalysis XYZWriter (release 2.4.3)
       H    12.73242   12.14117  -18.11500
       O    13.53379   12.60718  -17.91160
      H1    13.62071   12.36397  -16.97537
       H    15.85112   13.83290  -17.19844
       O    16.10380   13.78573  -16.20795
      H1    15.57405   13.10438  -15.78161
       H     8.93151   14.18784  -12.09080
       O     8.28647   14.68945  -12.63234
      H1     7.95087   14.01648  -13.18332
       H    17.80283   15.93550  -13.17124
       O    17.04138   16.21876  -12.69655
      H1    17.05723   15.63838  -11.93331
       H    14.00003   11.53301  -11.63948
       O    14.70712   12.00512  -12.14846
      H1    14.39433   12.95268  -12.14381
       H    16.88899   16.35818  -14.91469
       O    16.79010   16.87061  -15.76414
      H1    15.85742   16.68246  -15.91269
       H     8.38510   19.78660  -14.68786
       O     8.86236   19.20203  -14.08030
      H1     9.82259   19.33981  -14.02439
       H    12.73982   15.45783   -9.20685
       O    13.03316   15.91904  -10.00321
      H1    12.73767   15.23423  -10.58130
       H    11.25105   12.49792  -11.46305
       O    10.58467   12.94142  -12.01671
      H1    10.38432   12.20062  -12.63832
       H     9.00543   16.93425  -14.11502
       O     9.63151   16.23766  -14.47029
      H1     9.33008   15.45766  -14.05548
       H    16.43987   18.10898  -12.07417
       O    16.26665   18.94653  -11.63068
      H1    15.43575   18.80706  -11.20315
       H     9.01221   16.36590  -16.53918
       O     8.53912   16.79967  -17.21908
      H1     7.62073   16.48729  -17.04758
       H    14.89253   19.06683  -13.07984
       O    14.78910   19.15292  -14.10277
      H1    15.67296   19.54087  -14.35073
       H    14.57168   10.86625  -15.11743
       O    14.36642   11.84145  -14.85845
      H1    14.53831   11.90471  -13.93937
       H    11.44369   15.18857  -18.39088
       O    10.76941   14.81727  -18.99422
      H1    10.47743   15.52908  -19.54178
       H     9.46299   13.90079  -18.06109
       O     9.00169   13.40941  -17.36814
      H1     8.82169   14.12335  -16.69233
       H    13.48641   14.92362  -18.18748
       O    13.06470   15.74129  -17.94168
      H1    13.53205   16.38663  -18.53330
       H    12.87070   16.43002  -14.19324
       O    12.19716   16.50438  -13.46513
      H1    11.33432   16.50612  -13.86196
       H    17.01977   18.67804  -14.80243
       O    17.47544   19.49653  -15.02376
      H1    17.53112   20.10517  -14.25659
       H    15.13029   15.80149  -10.17998
       O    16.06077   15.43143  -10.25819
      H1    16.30684   15.63157   -9.35278
       H    11.82409   19.54060  -14.53036
       O    11.56775   19.24799  -13.64267
      H1    11.75446   18.28303  -13.72878
       H    12.10032   13.77468  -12.15668
       O    12.99285   14.18784  -12.21746
      H1    12.78692   14.97166  -12.78412
       H    13.93693   17.61606  -15.26069
       O    13.97636   16.61867  -15.28916
      H1    13.59609   16.26538  -16.06927

