69
frame 4 | Written by MDAnalysis XYZWriter (release 2.4.3)
       H    18.82181   -9.06952   -8.29295
       O    18.35567   -9.86140   -8.14001
      H1    17.67352   -9.63617   -7.47235
       H    16.25074   -5.24590   -5.24662
       O    16.51487   -5.04990   -4.32876
      H1    15.87765   -5.24620   -3.68283
       H    18.54645   -4.79877   -2.79927
       O    19.34399   -4.56278   -3.26566
      H1    19.01163   -4.05941   -4.04987
       H    19.17310   -7.17179  -11.91249
       O    19.27833   -6.18961  -11.75280
      H1    18.42034   -5.96234  -11.36480
       H    12.88681   -9.32615   -8.95999
       O    12.95951   -8.39108   -8.93143
      H1    13.45279   -8.32725   -8.15099
       H    16.83377   -5.54476   -7.14458
       O    15.96340   -5.68831   -6.68851
      H1    15.46642   -4.91775   -7.08210
       H    18.03574   -2.53453  -11.40859
       O    17.97092   -3.42396  -10.99089
      H1    17.15796   -3.38254  -10.48653
       H    13.86290   -8.13541   -5.17225
       O    14.00492   -7.87899   -6.09644
      H1    14.58922   -7.08378   -6.13267
       H    18.75992   -4.16571   -7.58442
       O    18.51317   -5.09923   -7.60280
      H1    19.19677   -5.54763   -7.05888
       H    16.78819   -1.40943   -9.07792
       O    16.34064   -0.85589   -9.70999
      H1    15.55961   -1.35349  -10.00050
       H    17.03905   -2.88586   -4.24836
       O    17.73272   -2.47208   -4.75577
      H1    17.41899   -1.55158   -4.77057
       H    12.00584   -4.80602   -9.30166
       O    12.45963   -4.03318   -9.68703
      H1    13.26469   -3.80356   -9.10745
       H    18.35415   -8.07901   -3.70197
       O    17.91312   -7.51480   -4.38683
      H1    17.51682   -6.78413   -3.97102
       H    15.88708   -7.04713  -10.59149
       O    15.07408   -6.63547  -10.25803
      H1    14.46530   -7.32573  -10.04610
       H    18.09743   -6.33615   -8.51335
       O    18.09214   -6.97528   -9.21545
      H1    18.87428   -6.68901   -9.68096
       H    19.03051   -9.61466  -12.51000
       O    18.60926   -8.81481  -12.27357
      H1    17.68752   -9.07689  -12.13831
       H    14.54193   -5.69287  -11.65647
       O    14.24552   -5.52154  -12.54517
      H1    13.90602   -4.59163  -12.54845
       H    16.74007  -10.38761   -8.98909
       O    15.91036  -10.76672   -9.18563
      H1    15.93628  -10.75058  -10.15334
       H    18.31787   -2.76572  -14.05608
       O    17.54321   -3.37932  -14.08871
      H1    17.52394   -3.72044  -13.20735
       H    15.91232   -8.93002   -6.35656
       O    16.77258   -9.25562   -6.01085
      H1    17.11782   -8.50007   -5.48269
       H    17.26657   -2.25742   -6.51262
       O    17.34327   -2.34447   -7.52492
      H1    16.90167   -3.15119   -7.78254
       H    15.23471   -4.97441   -9.39767
       O    15.56204   -4.03956   -9.32624
      H1    15.04894   -3.58006  -10.03472
       H    16.40025  -11.02418  -12.08207
       O    16.23348  -10.07713  -11.81670
      H1    15.54216   -9.81858  -12.45575

