69
frame 5 | Written by MDAnalysis XYZWriter (release 2.4.3)
       H    11.75171   -2.23814   -0.19819
       O    11.84560   -2.27571   -1.20366
      H1    12.75543   -2.67070   -1.39786
       H    12.30610   -5.71115    3.30452
       O    13.04621   -5.66613    3.94789
      H1    13.78327   -6.10821    3.59959
       H     9.92310   -3.77453    5.67129
       O    10.61083   -3.32101    5.14495
      H1    10.80410   -3.87712    4.35724
       H    11.71365   -3.58528    6.61820
       O    12.37866   -3.73765    7.29734
      H1    13.11917   -3.73596    6.75634
       H    14.74530    3.03246    5.38410
       O    14.82837    2.40869    4.60616
      H1    14.18021    2.72779    3.96977
       H    10.15320   -1.75174    4.87761
       O     9.65968   -0.91573    4.95838
      H1     8.74347   -1.22190    4.89760
       H    14.65149   -0.67936    8.55112
       O    15.10383   -1.25370    9.25636
      H1    15.56303   -1.99008    8.75766
       H    13.75092   -3.81788    4.34280
       O    13.92686   -3.06401    4.90102
      H1    14.92547   -3.04339    4.94196
       H    14.78462    0.55199    0.02911
       O    14.01906    1.16726   -0.05939
      H1    14.33521    1.97417    0.38705
       H    16.45733   -0.08281    3.38501
       O    16.42338    0.05438    2.44981
      H1    15.99351   -0.66209    1.98065
       H    11.81422   -1.64668    2.03013
       O    11.16394   -2.02434    1.46457
      H1    11.03711   -2.94314    1.73319
       H    16.57562   -1.39890    5.17313
       O    16.67032   -2.34516    4.96475
      H1    17.24102   -2.70424    5.69193
       H    13.69100    0.91676    7.85311
       O    13.98547    0.11501    7.35173
      H1    14.68942    0.44996    6.77101
       H    19.75745   -3.45381    3.85414
       O    18.83902   -3.53209    3.46358
      H1    18.18121   -3.03026    3.97657
       H    11.29453   -4.69390    1.81793
       O    10.75345   -4.50916    2.64074
      H1    10.03054   -5.05503    2.41508
       H    12.42263    1.45644    1.13993
       O    11.76692    1.89659    1.66502
      H1    11.51059    2.73177    1.25802
       H    13.34156   -1.50110    3.98062
       O    13.04187   -1.02856    3.21362
      H1    12.71824   -0.20682    3.56268
       H    11.77559    0.26838    7.38054
       O    10.85119    0.27098    7.47238
      H1    10.51481   -0.27791    6.74479
       H    15.04091   -2.68713    0.86615
       O    14.81054   -1.73403    1.04275
      H1    14.06372   -1.73339    1.64926
       H    17.08678    0.64704    5.89032
       O    16.30059    0.32707    5.48419
      H1    15.74802    1.11498    5.32633
       H    10.49240    0.33070    4.29966
       O    10.99670    1.19724    4.14747
      H1    10.99957    1.25103    3.16111
       H    10.47034    2.70425    4.50609
       O    10.01390    3.49666    4.84508
      H1     9.13255    3.36386    4.56155
       H     9.44153    0.18715    0.02231
       O     8.89880   -0.52892    0.36413
      H1     9.45373   -1.07178    0.97271

