69
frame 6 | Written by MDAnalysis XYZWriter (release 2.4.3)
       H   -11.01240    9.92487    3.45334
       O   -11.94393   10.11224    3.50784
      H1   -12.06028   10.91338    2.94716
       H   -10.51911    7.00083   -3.98152
       O    -9.64642    7.01624   -4.25208
      H1    -9.20867    7.14712   -3.46787
       H   -12.08597    9.99721   -0.29081
       O   -11.26768    9.54960   -0.50037
      H1   -10.99074    9.09468    0.31387
       H   -14.41606    8.21530   -1.63784
       O   -13.69432    7.54707   -1.61046
      H1   -13.04536    7.71205   -0.92253
       H    -8.25356    9.52774    0.50526
       O    -8.53610   10.14106   -0.19400
      H1    -9.45976   10.05723   -0.22234
       H   -11.52390   10.21432   -4.79570
       O   -12.30489    9.86363   -5.30282
      H1   -12.84181   10.66391   -5.33291
       H    -6.70332    8.40254    2.04183
       O    -7.11454    8.18593    1.15942
      H1    -6.45785    8.31428    0.55670
       H    -7.89050   12.57156    2.45263
       O    -7.38920   11.73914    2.50820
      H1    -7.61045   11.31962    1.63755
       H   -12.73963   12.91706    1.52266
       O   -13.00256   12.10274    2.02261
      H1   -13.45314   11.46301    1.45234
       H   -14.90774   12.76338   -1.83727
       O   -14.01255   12.36079   -1.71573
      H1   -13.51092   12.93097   -1.07995
       H   -15.38320   10.78807   -1.73168
       O   -15.55960    9.83376   -1.89996
      H1   -16.27864    9.68417   -2.47784
       H    -8.91838   12.53016   -1.80622
       O    -9.25481   13.39424   -1.50731
      H1    -9.49695   13.82228   -2.31623
       H   -11.52597   11.46506   -3.43157
       O   -11.97257   12.35596   -3.38879
      H1   -12.70741   12.23905   -2.67463
       H   -14.22933    9.35633    1.42184
       O   -13.96205   10.01383    0.81358
      H1   -14.71317   10.03170    0.25002
       H    -6.78795   10.53425   -0.25935
       O    -5.81940   10.76489   -0.01832
      H1    -5.73228   11.75915   -0.04986
       H   -12.03182   14.14774    0.16119
       O   -12.97907   13.95990    0.21535
      H1   -13.42078   14.46484   -0.47743
       H   -14.11156    7.32996    2.31255
       O   -14.85489    7.90983    2.32857
      H1   -15.45506    7.62589    1.59318
       H    -7.21116    8.12290   -1.46859
       O    -6.26853    8.42436   -1.71581
      H1    -5.77569    7.62085   -1.92481
       H    -9.35320   10.07496   -3.38121
       O   -10.32961   10.11168   -3.23843
      H1   -10.41161    9.94591   -2.27528
       H   -10.42523    7.26324    2.10996
       O    -9.97251    7.57923    1.33763
      H1    -9.06055    7.27765    1.41497
       H    -8.75522    6.16824   -1.90756
       O    -8.64856    7.12219   -1.60851
      H1    -9.47994    7.24039   -1.23148
       H    -7.20370    9.77573   -2.89961
       O    -7.74709   10.17867   -3.63843
      H1    -7.57369    9.70460   -4.51231
       H   -12.63904    8.10629   -4.43573
       O   -12.42930    7.24682   -4.12847
      H1   -12.95158    7.12309   -3.33487

