69
frame 6 | Written by MDAnalysis XYZWriter (release 2.4.3)
       H   -17.00151    4.90211   18.60368
       O   -16.24081    5.38003   18.32262
      H1   -15.99241    6.04528   18.99090
       H   -12.93712    2.92624   13.50413
       O   -12.45003    2.14026   13.17837
      H1   -12.14311    1.70028   13.97730
       H   -12.42369    1.41045   18.42218
       O   -11.54630    1.58352   18.07498
      H1   -10.86301    1.20258   18.58379
       H   -13.83418   -2.20495   14.79690
       O   -13.17252   -1.52800   14.44634
      H1   -12.43012   -2.01330   14.08748
       H   -13.66434    4.03738   15.32323
       O   -13.43492    4.36248   14.41766
      H1   -12.65532    4.96767   14.46411
       H   -17.28364    2.36617   13.94978
       O   -17.18438    3.19542   13.49478
      H1   -16.59804    3.10860   12.74937
       H   -15.29337   -0.34316   12.55921
       O   -14.66749    0.23350   12.94815
      H1   -14.12089   -0.35236   13.51614
       H   -14.45111    1.90170   18.55795
       O   -14.32970    1.02943   18.17469
      H1   -14.58582    0.41881   18.90049
       H   -13.65806    6.87694   16.69865
       O   -12.85679    6.91441   17.24388
      H1   -12.43016    6.06233   17.12362
       H    -9.61473   -2.05257   19.64741
       O   -10.24773   -1.29729   19.79213
      H1   -10.91173   -1.20116   19.06936
       H   -17.94158    0.23252   18.67605
       O   -18.13204   -0.12660   19.52178
      H1   -18.58540   -0.98015   19.34784
       H   -14.94663    4.23069   18.37663
       O   -14.13969    3.75278   18.66348
      H1   -13.36767    4.09016   18.21930
       H   -13.05983   -0.86591   17.85816
       O   -12.46627   -1.60876   18.19972
      H1   -12.03035   -1.90994   17.38348
       H   -15.09258   -2.96521   16.89397
       O   -15.42869   -2.45730   16.16389
      H1   -16.31168   -2.11436   16.46811
       H   -14.13662    7.17390   18.63821
       O   -14.65940    7.24360   19.41784
      H1   -13.95453    7.32790   20.11862
       H   -16.10932    4.48942   16.36790
       O   -15.95786    3.62188   16.01664
      H1   -16.55223    3.58665   15.27063
       H   -17.65689   -0.54063   14.49535
       O   -18.47765   -1.11627   14.61864
      H1   -19.08841   -0.57536   15.10786
       H   -11.38964    3.40628   17.68752
       O   -11.71489    4.35057   17.63119
      H1   -11.48330    4.67597   18.56201
       H   -17.22543    1.92186   17.22380
       O   -16.79325    1.11440   17.13885
      H1   -15.95575    1.14956   17.55222
       H   -16.63935    0.89514   15.60712
       O   -16.62058    0.85251   14.65736
      H1   -15.74833    0.69606   14.24511
       H   -14.21381   -4.44902   17.87480
       O   -14.60297   -3.80096   18.42793
      H1   -13.85218   -3.26064   18.70371
       H   -18.78482    5.21370   18.92731
       O   -18.68945    4.31010   18.50218
      H1   -18.66569    4.49260   17.55647
       H   -11.67764    1.17046   16.15572
       O   -11.60372    0.65859   15.36157
      H1   -12.22095   -0.09120   15.49505

