69
frame 6 | Written by MDAnalysis XYZWriter (release 2.4.3)
       H    -5.26204   -7.24303   -2.56719
       O    -5.53987   -7.63905   -1.72365
      H1    -4.88700   -7.70367   -1.02502
       H    -4.55281   -2.96032   -3.85553
       O    -4.01778   -3.75075   -3.71116
      H1    -3.06917   -3.48328   -3.89887
       H   -13.36609   -2.94742   -1.52971
       O   -12.50346   -3.13348   -1.86329
      H1   -11.97368   -3.08991   -1.09167
       H    -9.90120   -6.04544   -5.16415
       O    -9.80316   -5.62387   -4.32223
      H1   -10.69709   -5.14375   -4.24168
       H    -7.67358   -4.64562   -4.72361
       O    -6.89487   -4.09144   -4.57117
      H1    -6.60270   -3.89468   -5.48111
       H    -8.19851   -6.25122    0.32682
       O    -8.43242   -5.35588    0.53926
      H1    -7.97222   -5.07966    1.34128
       H    -4.28841   -1.35094   -0.15709
       O    -4.67407   -1.59872    0.66452
      H1    -5.64026   -1.48835    0.49931
       H    -7.60298   -0.02061   -3.23513
       O    -7.66827    0.56899   -2.46756
      H1    -7.36176    0.12185   -1.73698
       H    -5.78993   -7.20692   -5.11411
       O    -6.40855   -7.68359   -5.70585
      H1    -6.53713   -8.59154   -5.39335
       H    -8.80513   -7.63799   -1.41276
       O    -8.11376   -7.65538   -0.64629
      H1    -7.29567   -7.52452   -1.12073
       H    -3.70201   -7.06742   -4.07212
       O    -4.52650   -6.60146   -4.12173
      H1    -4.32694   -5.64921   -4.00405
       H    -9.90876   -1.44533   -5.22854
       O    -9.41045   -1.25120   -6.05611
      H1    -9.17630   -2.08681   -6.44180
       H   -11.71267   -5.90873    0.64758
       O   -11.12990   -5.43073    1.26075
      H1   -10.30316   -5.26558    0.78865
       H    -6.04233   -1.10165   -4.42905
       O    -5.94747   -1.68930   -3.67207
      H1    -6.43038   -2.45630   -3.89595
       H    -8.69577   -8.74970   -3.49360
       O    -9.28523   -8.06438   -3.11289
      H1    -9.31594   -7.35489   -3.74212
       H    -7.34218   -2.43040   -0.31243
       O    -7.46237   -1.58352    0.09496
      H1    -7.62743   -1.76395    1.00515
       H    -6.17812   -4.73345    2.09363
       O    -7.00311   -4.55619    2.66120
      H1    -7.08502   -3.61285    2.83877
       H    -2.47613   -4.27087   -1.08939
       O    -2.89470   -4.97001   -1.67378
      H1    -3.36393   -4.54615   -2.48965
       H   -10.92876   -1.00459   -3.38526
       O   -10.74559   -1.86295   -3.90194
      H1   -11.06739   -2.54073   -3.28534
       H    -7.68110   -3.84762   -2.40930
       O    -7.37423   -3.71272   -1.50584
      H1    -7.73790   -4.51501   -1.07137
       H    -4.37823   -1.23366   -2.32589
       O    -3.70479   -0.92963   -1.66738
      H1    -3.74446   -0.01389   -1.86048
       H    -9.11988   -0.81921   -0.00200
       O    -9.77533   -0.10472   -0.16852
      H1    -9.26412    0.72789   -0.22313
       H    -4.04815   -4.81461    0.21750
       O    -4.93882   -4.54208    0.53271
      H1    -5.14293   -3.76416    0.01961

