69
frame 6 | Written by MDAnalysis XYZWriter (release 2.4.3)
       H     9.83925   16.51485    1.94217
       O     9.61575   17.15331    2.64426
      H1     8.79271   16.86283    3.06624
       H     7.68735   15.68770    8.80448
       O     7.20234   14.94127    9.23384
      H1     6.55402   14.71509    8.55105
       H     3.16816   18.79888    7.02753
       O     2.53141   18.11651    7.15188
      H1     1.80603   18.65615    7.61848
       H     3.00475   15.16602    6.95276
       O     3.70167   15.79596    7.28536
      H1     3.30748   16.65185    7.11651
       H     3.75343   15.07211    2.53857
       O     3.11889   15.47422    1.85548
      H1     2.62238   16.13426    2.34095
       H     3.98036   11.65753    6.96777
       O     3.06177   11.86858    7.12500
      H1     2.92598   11.69266    8.11462
       H     1.85710   13.78897    5.25797
       O     1.82775   13.97348    6.17139
      H1     2.30232   13.20599    6.56191
       H    10.62540   14.51371    5.15974
       O    11.01598   13.66711    4.90209
      H1    11.72756   14.03529    4.33245
       H     8.27888   17.96544    8.06383
       O     8.08725   17.38437    7.29498
      H1     7.63780   17.95892    6.63658
       H     4.75012   13.49124   10.35983
       O     4.52339   12.63580   10.02966
      H1     4.30649   12.71556    9.12752
       H     9.39358   16.44015    6.21394
       O     9.72542   15.83763    5.49476
      H1     8.94715   15.55295    5.01387
       H     6.82278   14.58796    3.51662
       O     7.23533   15.30272    3.92885
      H1     6.94392   15.25041    4.84805
       H     2.50659   16.23506   10.86466
       O     3.20679   16.31094   10.22880
      H1     3.01728   16.16413    9.32725
       H     5.37921   11.32540    3.23389
       O     5.89064   10.83029    3.88779
      H1     5.41996   10.00001    4.06587
       H     5.89906   11.57668    5.55740
       O     5.70009   11.86299    6.41071
      H1     6.19020   11.31259    7.05101
       H     6.63338   19.52716    1.71244
       O     6.39284   18.61932    1.97826
      H1     6.91358   18.32176    2.74861
       H    10.32975   11.44982    7.76860
       O     9.74445   11.56441    6.95752
      H1    10.27572   12.04596    6.34763
       H     8.27213   11.28447    8.03255
       O     7.49305   10.71861    8.23512
      H1     7.27500   10.92777    9.17520
       H     6.05337   15.04225   10.82615
       O     5.33538   15.09314   11.44132
      H1     4.61290   15.42129   10.94730
       H     5.92556   13.77019    6.34387
       O     6.01927   14.74595    6.30518
      H1     5.22378   15.24209    6.53280
       H     7.67029   12.76912    1.69671
       O     6.87097   12.84020    1.14871
      H1     7.00911   13.64614    0.55811
       H     6.48541   19.13822    5.31862
       O     7.35808   18.77615    5.12124
      H1     7.95915   19.52116    5.14799
       H     5.53604   13.09717    2.07972
       O     4.91577   13.41540    2.78032
      H1     4.04551   12.94530    2.60165

