69
frame 5 | Written by MDAnalysis XYZWriter (release 2.4.3)
       H     6.11899   12.35548   -1.83505
       O     5.36034   11.75896   -2.04058
      H1     5.34387   11.56890   -2.99174
       H    12.97987   12.01289   -4.77773
       O    13.35867   12.70969   -4.23171
      H1    12.73803   13.15851   -3.62752
       H     7.91586   13.24465   -8.43115
       O     8.58496   13.45756   -7.78687
      H1     8.56566   12.66922   -7.16285
       H     8.66829   10.50265   -6.38943
       O     8.38719   11.34531   -5.98532
      H1     7.45442   11.21177   -5.84214
       H    11.01569    7.58792   -2.52072
       O    11.06513    7.57249   -1.56318
      H1    10.32885    6.94863   -1.33380
       H     9.54921   10.56734   -3.11148
       O     8.61807   10.51649   -3.46578
      H1     8.66878   11.06153   -4.24044
       H     8.56931   10.61854    0.94588
       O     8.48353   10.91423    0.03869
      H1     9.33976   11.39415   -0.15448
       H    11.14186   10.88584   -1.20526
       O    11.10520   10.19853   -1.88759
      H1    11.01465    9.33968   -1.41952
       H     6.52175    9.04160   -1.02586
       O     5.64360    9.02484   -1.39304
      H1     5.61205    9.96599   -1.64544
       H     7.74104    7.02639   -1.25924
       O     8.51954    6.73086   -0.73613
      H1     8.12559    6.03837   -0.14620
       H     4.43266   11.45803   -4.62022
       O     4.80364   10.57886   -4.44640
      H1     4.07176   10.14499   -3.92806
       H    12.79346   15.13885   -1.64881
       O    12.56120   14.32901   -2.16018
      H1    11.64311   14.41249   -2.39947
       H     9.04689    8.13346   -5.62933
       O     8.73954    8.48802   -6.48583
      H1     7.79055    8.56928   -6.32176
       H     5.85812   14.10258   -4.12630
       O     6.68247   14.40429   -4.58095
      H1     6.83640   15.31189   -4.23637
       H     9.66287   15.14421   -3.53086
       O     9.88717   14.72070   -2.72058
      H1     9.16236   14.16268   -2.39407
       H     5.55199    9.69910   -7.77658
       O     5.67471   10.62101   -7.57756
      H1     4.77844   10.77923   -7.23754
       H     8.05922   11.91811   -1.84461
       O     7.82642   12.86764   -1.69545
      H1     8.04747   13.00585   -0.72123
       H    12.25764   10.51912   -6.31363
       O    13.12789   10.78211   -6.00927
      H1    13.53055   10.08650   -5.48955
       H     5.40724    7.92718   -5.83336
       O     6.15335    8.20259   -5.32399
      H1     5.83204    9.10820   -4.93086
       H     6.17935    7.58983   -2.30379
       O     6.64361    7.07952   -2.95440
      H1     6.38727    7.46802   -3.82400
       H    11.72774   12.61855    0.51838
       O    11.30907   12.74089   -0.37940
      H1    11.92683   13.28714   -0.91018
       H    12.80037   10.16178   -2.28790
       O    13.77836   10.13334   -2.34873
      H1    14.06374    9.30757   -1.94778
       H     9.20240    6.86327   -3.96434
       O     9.64849    7.73307   -4.09267
      H1     9.12194    8.29221   -3.54763

