69
frame 6 | Written by MDAnalysis XYZWriter (release 2.4.3)
       H     9.70681  -12.70705   -0.31161
       O     9.02716  -12.57158   -1.02985
      H1     8.62776  -11.69754   -0.93331
       H     7.53907  -10.11999   -9.60223
       O     7.59684   -9.27000   -9.05222
      H1     7.79303   -8.60478   -9.70339
       H     8.23783  -13.94968   -2.45850
       O     7.84243  -14.59660   -3.00312
      H1     8.37681  -14.62004   -3.85460
       H     6.90717   -9.96758   -1.21063
       O     7.84762   -9.91483   -1.20045
      H1     8.06607   -9.09716   -1.62339
       H     6.32219  -16.04215   -6.03354
       O     5.64560  -16.70889   -5.98203
      H1     4.82833  -16.41369   -6.42097
       H     4.82568  -13.09797   -7.73333
       O     5.33631  -12.91450   -6.96012
      H1     4.78777  -12.25048   -6.57334
       H    10.68471  -12.69308   -8.53888
       O     9.76341  -12.54924   -8.74900
      H1     9.41866  -13.40967   -8.94743
       H    13.56730  -11.74903   -7.87965
       O    14.19166  -11.01785   -7.76822
      H1    15.04626  -11.35091   -8.19401
       H     6.60973  -14.39720   -7.60595
       O     7.33815  -15.01258   -7.54533
      H1     7.22854  -15.46763   -8.38674
       H    12.16854  -12.32236   -4.28599
       O    11.80208  -11.45206   -4.23414
      H1    11.11997  -11.40643   -4.90567
       H     4.75007  -10.42374   -4.70604
       O     4.28037  -11.21834   -5.08384
      H1     4.28286  -11.86568   -4.34326
       H     9.37215   -6.29109   -5.17859
       O    10.02848   -6.95058   -5.20277
      H1    10.04941   -7.19358   -6.11471
       H    10.39747  -17.11297   -6.62942
       O    11.21370  -16.58021   -6.47529
      H1    11.02125  -15.72569   -6.17960
       H     8.61058  -11.25775   -6.02868
       O     9.36508  -11.83917   -5.95246
      H1     9.40379  -12.20895   -6.86760
       H    12.67454   -9.63664   -4.12545
       O    13.19574   -8.89750   -3.72555
      H1    13.96786   -9.35427   -3.28337
       H    13.17561  -13.54416   -7.44014
       O    12.48338  -13.07963   -8.05128
      H1    12.78578  -13.47696   -8.91843
       H    10.62075  -12.46434  -10.23834
       O    11.27748  -12.38724  -10.94153
      H1    11.82041  -13.17670  -10.80949
       H     6.47503  -10.74710   -5.91559
       O     6.99019  -10.02137   -6.23184
      H1     6.73152   -9.93066   -7.10971
       H    10.70092   -7.98343   -8.27839
       O     9.78712   -7.73363   -7.91639
      H1     9.36869   -8.59738   -7.86227
       H     6.35219   -8.82135   -4.84278
       O     5.57294   -8.61957   -4.29809
      H1     5.76586   -8.13782   -3.48182
       H     8.51725  -14.78857   -6.14772
       O     9.27048  -14.61395   -5.53041
      H1     9.38093  -13.58864   -5.42715
       H    10.26885  -11.41961   -1.50380
       O    10.86815  -10.63727   -1.64577
      H1    11.42279  -10.90377   -2.39676
       H     9.97603   -9.06134   -2.28494
       O     9.65269   -8.11808   -2.46373
      H1     9.69252   -7.93405   -3.37609

