69
frame 5 | Written by MDAnalysis XYZWriter (release 2.4.3)
       H     5.81773  -16.36295  -16.60081
       O     5.75940  -15.79876  -15.79870
      H1     6.57830  -15.93329  -15.36081
       H     4.02777  -17.00217  -18.19173
       O     4.90427  -17.41926  -18.00415
      H1     4.68950  -17.98265  -17.21222
       H    -1.97604  -11.39668  -16.75410
       O    -1.83719  -12.29372  -16.42890
      H1    -1.19628  -12.70486  -16.98811
       H     4.34887  -13.11593  -14.59128
       O     4.08698  -13.67589  -15.35837
      H1     4.54067  -14.52535  -15.18242
       H    -2.58752  -12.84551  -19.00463
       O    -3.37298  -12.41155  -19.28987
      H1    -3.44690  -12.37408  -20.24917
       H    -1.53745  -14.90629  -18.03138
       O    -1.06052  -14.10672  -18.41926
      H1    -0.54135  -14.61374  -19.13256
       H     3.48320  -11.06718  -15.70653
       O     2.84056  -10.33302  -15.61615
      H1     3.36360   -9.60700  -15.28952
       H     1.96692  -15.79317  -14.72759
       O     2.53061  -16.11713  -15.44599
      H1     2.19492  -16.94938  -15.83180
       H     3.20048  -15.66622  -17.31099
       O     2.85623  -15.75358  -18.19014
      H1     3.36269  -15.07280  -18.69839
       H    -3.08944  -13.63453  -16.50006
       O    -3.80654  -14.27871  -16.51182
      H1    -3.44933  -15.12927  -16.83569
       H     2.42767  -13.94014  -16.18719
       O     1.59169  -13.56820  -16.59755
      H1     1.24686  -14.35343  -17.03366
       H    -3.10815   -9.68143  -17.24371
       O    -2.30071   -9.57185  -16.73594
      H1    -2.51766   -9.50563  -15.81128
       H     1.61860  -14.70162  -12.07396
       O     1.61405  -14.75907  -13.02817
      H1     0.97161  -14.10131  -13.37980
       H     5.25832   -8.92222  -17.99619
       O     4.69069   -9.12768  -18.75325
      H1     5.23061   -9.47451  -19.48573
       H     3.77366  -13.02694  -18.39479
       O     4.59402  -13.47963  -18.14704
      H1     4.59148  -13.56641  -17.20690
       H     1.75771  -12.53859  -17.99170
       O     2.22231  -12.23861  -18.84229
      H1     1.97025  -11.30250  -19.00526
       H    -1.62277  -17.30418  -17.09931
       O    -1.92053  -16.39531  -16.86482
      H1    -1.97718  -16.40357  -15.89153
       H     7.63570   -9.72393  -16.67524
       O     7.82072  -10.63797  -16.78152
      H1     8.55280  -10.71444  -17.42846
       H     7.11252  -11.33081  -18.10966
       O     6.91464  -11.98459  -18.82417
      H1     6.15370  -12.46828  -18.51817
       H    -0.92216  -12.89280  -14.74027
       O    -0.40886  -12.75840  -13.91630
      H1    -1.07572  -12.65149  -13.23126
       H     8.41193  -16.47402  -18.45720
       O     8.05423  -15.76706  -17.86178
      H1     7.44484  -15.25792  -18.43001
       H     0.10241  -10.90480  -14.77088
       O     0.14993   -9.94736  -14.75873
      H1     0.88228   -9.74380  -15.32442
       H     2.14730  -12.12553  -13.00774
       O     2.29425  -11.67106  -12.15302
      H1     1.84420  -10.76710  -12.17110

