69
frame 6 | Written by MDAnalysis XYZWriter (release 2.4.3)
       H     1.23630  -13.27995    8.17437
       O     1.65296  -12.71386    8.83270
      H1     2.02844  -11.99108    8.39762
       H     0.43301  -12.07569   11.97561
       O     0.92579  -12.77457   11.56374
      H1     0.91308  -12.63435   10.59471
       H     5.03107  -13.66320   12.41856
       O     5.73217  -14.04793   12.92192
      H1     6.20417  -14.59636   12.29650
       H     0.12624  -13.98239    5.97156
       O     0.88379  -14.04041    6.52942
      H1     1.47791  -13.40419    6.10471
       H     5.25402  -12.51501    9.87049
       O     4.86188  -13.32713    9.52681
      H1     5.50236  -13.99284    9.75863
       H     6.91455  -17.53641   11.92112
       O     7.38853  -16.76892   12.22603
      H1     7.28320  -16.65092   13.17761
       H    -3.52853  -14.13888   10.27743
       O    -2.75092  -13.63258   10.17657
      H1    -1.85988  -14.13867   10.20650
       H     4.18366  -17.47044    7.23470
       O     4.19728  -17.40150    8.23725
      H1     4.48111  -18.25876    8.56096
       H     0.02107  -17.95886    9.02036
       O    -0.88174  -17.65022    9.37250
      H1    -0.60529  -16.91106    9.89181
       H     0.84810   -9.57291    9.32126
       O     0.08759  -10.09030    9.02542
      H1     0.39359  -11.02604    9.08507
       H     4.52927  -15.88160    4.83524
       O     4.27230  -16.81858    5.08044
      H1     3.54681  -17.02480    4.48303
       H     5.34077  -12.05957    6.63836
       O     4.55178  -12.50808    6.88265
      H1     4.62659  -12.85884    7.76687
       H     2.72140  -17.93925   12.39362
       O     3.66056  -17.97589   12.26475
      H1     3.86271  -17.48630   11.48279
       H    -0.82196  -16.61178    6.81754
       O     0.16543  -16.62581    6.54175
      H1     0.44968  -15.70294    6.36153
       H     3.95057  -10.43383   11.04003
       O     3.15662  -10.31285   11.52941
      H1     3.00871  -11.29203   11.72708
       H     3.36796  -11.42246    7.18247
       O     2.63919  -10.78537    7.31942
      H1     3.03518  -10.00200    7.64683
       H     3.11226  -16.01598    8.92711
       O     2.98035  -15.45286    9.68206
      H1     3.20148  -14.62135    9.29044
       H     7.12856  -15.26101    9.52385
       O     7.35889  -14.65712   10.23941
      H1     7.60236  -15.16158   11.04494
       H     2.64622  -13.00346   12.00772
       O     3.62568  -13.06221   11.95544
      H1     3.86240  -13.42598   11.09448
       H     6.27800  -19.30725   13.14475
       O     6.02747  -19.37190   12.22630
      H1     5.17625  -18.87895   12.26933
       H     4.79777  -15.09478   14.03543
       O     4.64230  -16.01517   14.19971
      H1     4.06176  -16.24568   13.44107
       H     1.13976  -15.52333    9.96591
       O     0.31040  -15.18957   10.39571
      H1     0.62329  -14.40309   10.89062
       H     6.87808  -15.25668    7.38620
       O     6.68194  -15.97926    8.00545
      H1     5.74121  -16.21456    7.93141

