69
frame 6 | Written by MDAnalysis XYZWriter (release 2.4.3)
       H     3.02986   11.88771   -6.30113
       O     3.94756   12.06787   -6.47967
      H1     4.11436   12.91955   -6.98108
       H     6.30525   11.26755   -1.19660
       O     5.49652   10.72442   -1.19827
      H1     5.24401   10.65618   -2.15208
       H     8.99165   12.47605   -8.21694
       O     9.81082   12.54812   -7.79232
      H1     9.58555   12.63823   -6.85794
       H     7.72764   11.65022   -5.58079
       O     8.35891   12.39401   -5.40802
      H1     7.88890   13.12212   -5.02037
       H     3.79944    5.76317   -5.32755
       O     3.36344    6.59778   -5.35716
      H1     3.15162    6.70134   -6.29641
       H    10.16709   10.73448   -3.15863
       O     9.42914   10.29728   -3.73403
      H1     9.11605   11.06644   -4.20334
       H     3.99605    9.85035  -11.59336
       O     4.84458    9.76925  -11.14988
      H1     5.39755   10.38070  -11.70034
       H     1.12327   12.31880   -4.64899
       O     1.36134   12.26357   -5.56722
      H1     0.63172   11.95986   -6.09327
       H     3.13699   16.44329   -8.36229
       O     3.26914   15.83528   -9.12216
      H1     3.72204   14.96543   -8.87539
       H     4.29569   11.65502   -4.00000
       O     4.51801   10.76811   -3.68851
      H1     3.61929   10.55037   -3.34824
       H     5.28903   14.36957  -10.82272
       O     5.33149   13.39506  -10.58839
      H1     4.43723   13.21891  -10.29642
       H     9.40676    8.00786   -7.58849
       O     8.89391    8.66767   -8.07668
      H1     8.08727    8.10627   -8.10320
       H     6.65055   13.99544   -3.81371
       O     7.40778   14.54758   -3.83093
      H1     7.22702   15.46433   -3.76237
       H     6.34615    6.27071   -7.58654
       O     6.42461    6.78357   -8.37513
      H1     5.80554    7.56088   -8.30158
       H     6.38819    9.72349   -6.42128
       O     6.36358   10.68258   -6.48463
      H1     5.36187   10.89457   -6.40769
       H     4.99355    9.17514   -9.44305
       O     4.69911    8.91044   -8.55330
      H1     4.00489    8.24283   -8.74657
       H     4.18218   14.66557   -4.20601
       O     4.56348   13.79567   -4.40178
      H1     4.18034   13.52975   -5.25748
       H     4.82294    7.86330   -5.12113
       O     5.61232    8.43393   -4.85211
      H1     5.31491    9.27048   -4.57860
       H     4.92014   15.34654   -7.98893
       O     5.02137   14.38689   -7.72292
      H1     5.81824   14.10666   -8.14167
       H     1.64161   15.74466   -5.40497
       O     2.06860   15.02756   -5.96608
      H1     1.71298   14.16196   -5.67862
       H     6.21754    8.21589   -1.70154
       O     6.72826    7.83592   -2.44962
      H1     6.43780    8.09233   -3.30933
       H     6.64695   12.46062   -9.48731
       O     7.20454   12.31269   -8.69998
      H1     6.76695   11.74202   -8.03888
       H     2.87893   10.27239   -9.02999
       O     2.02810   10.63314   -9.20782
      H1     2.19349   11.58150   -9.43289

