69
frame 7 | Written by MDAnalysis XYZWriter (release 2.4.3)
       H    -0.86259   16.45909   -3.19914
       O    -1.32911   16.24444   -2.38640
      H1    -1.57683   17.13010   -2.04084
       H    -1.90420   13.36581    3.44757
       O    -2.27597   14.27131    3.37844
      H1    -2.89220   14.36694    2.57408
       H    -9.41667   19.97054    1.32447
       O    -9.54881   19.06378    1.06587
      H1   -10.47005   18.79565    1.31498
       H    -5.50657   18.60498    5.22798
       O    -6.03991   17.81180    5.07450
      H1    -5.91236   17.66283    4.11292
       H    -2.79246   18.12598    2.82760
       O    -1.91880   18.40719    3.13563
      H1    -1.31992   17.65997    2.85948
       H    -5.20331   18.89417   -2.38091
       O    -5.85225   19.58805   -2.07828
      H1    -5.81051   20.40674   -2.58412
       H    -9.41936   17.09544    4.82020
       O    -8.79572   17.57435    5.38162
      H1    -7.94086   17.30853    5.05817
       H    -9.77513   19.61053   -0.91224
       O    -9.51511   19.87476   -1.75775
      H1   -10.01020   19.43777   -2.45515
       H   -10.11431   15.51832    3.69382
       O   -10.70049   16.20760    3.99020
      H1   -11.38924   15.78079    4.52545
       H    -7.23862   16.32580   -1.76242
       O    -6.76413   16.07405   -0.94933
      H1    -6.41115   15.16597   -1.20643
       H    -0.81734   15.43405    2.85137
       O    -0.16896   16.13165    2.96769
      H1    -0.32245   16.48147    3.89263
       H    -7.69805   16.96918   -4.15903
       O    -7.94309   17.24856   -3.26387
      H1    -7.48954   18.07500   -3.15008
       H    -7.01418   17.97474    6.81503
       O    -6.93038   18.30939    7.73982
      H1    -7.13658   19.20653    7.73661
       H    -4.84909   14.08349    1.99752
       O    -4.17460   14.67897    1.63723
      H1    -4.41619   15.55795    1.92078
       H    -5.36616   19.39790   -0.26412
       O    -4.89664   18.88663    0.42645
      H1    -4.53431   19.53197    1.08298
       H    -1.32761   18.36167   -0.17895
       O    -2.06074   18.48059   -0.82885
      H1    -2.88053   18.36468   -0.31828
       H    -5.03490   13.33446   -1.50733
       O    -5.50989   13.62682   -0.64360
      H1    -4.90339   13.94212    0.00795
       H    -6.48686   16.88705    2.04483
       O    -5.57425   16.99611    2.38605
      H1    -5.34207   17.75220    1.88575
       H    -3.67478   16.80646   -2.79946
       O    -4.57704   17.08713   -2.65998
      H1    -4.86225   16.63187   -1.85761
       H    -7.50394   16.63237    0.56208
       O    -7.95404   16.96336    1.39326
      H1    -8.40139   17.83021    1.21715
       H    -5.40050   16.70781    6.60357
       O    -5.01286   15.90852    6.92630
      H1    -5.62067   15.38081    7.50174
       H    -9.09258   14.76157   -0.14832
       O    -9.79843   15.30950    0.25818
      H1    -9.25180   15.86845    0.77273
       H    -4.06416   14.40536    6.24983
       O    -3.36044   13.78863    5.97428
      H1    -3.04829   14.08845    5.15831

