69
frame 7 | Written by MDAnalysis XYZWriter (release 2.4.3)
       H     0.48070    9.65869   19.52292
       O    -0.05913   10.41538   19.15908
      H1     0.16356   10.40911   18.22873
       H    -4.16600   13.31371   18.92322
       O    -3.57114   12.77972   18.35725
      H1    -3.27505   12.08782   18.92609
       H     0.36558   14.56039   19.54037
       O     0.21785   15.18894   18.79735
      H1     1.14738   15.42052   18.52555
       H    -7.68551   11.38849   17.47492
       O    -8.42947   11.37344   18.17508
      H1    -7.97172   11.04698   18.90086
       H    -4.05313    6.87799   19.06769
       O    -3.64567    5.99179   19.20663
      H1    -3.16265    5.73836   18.39228
       H    -1.95638    9.36090   12.48755
       O    -2.87631    9.08143   12.65649
      H1    -2.80311    8.90517   13.60153
       H     2.43841    9.48425   15.20081
       O     2.28646    8.76431   15.81614
      H1     2.60667    9.06740   16.66836
       H    -8.41765    7.42553   15.25307
       O    -7.78112    7.91689   14.64401
      H1    -7.03865    8.03072   15.22544
       H    -0.99535   14.12441   17.50948
       O    -1.32571   13.54435   16.78397
      H1    -2.25707   13.23640   17.05358
       H    -9.92282   10.25053   15.82637
       O    -9.91151    9.80279   16.67806
      H1    -9.44229   10.38732   17.29122
       H    -6.83939   14.75774   17.48223
       O    -5.97898   14.37702   17.29799
      H1    -5.76145   14.68877   16.40467
       H    -5.11445    5.23942   19.43321
       O    -6.04392    4.91265   19.68709
      H1    -6.12652    3.99183   19.53451
       H    -5.46223    5.82090   15.29476
       O    -4.96447    5.51158   14.49279
      H1    -4.03320    5.29706   14.75888
       H    -0.91036    6.67060   18.20360
       O    -1.34965    7.07235   17.42262
      H1    -0.99585    7.98163   17.43320
       H    -1.76516    4.43390   14.89272
       O    -2.28309    5.04388   15.39965
      H1    -1.68031    5.77366   15.64311
       H    -3.28252   10.51262   15.24792
       O    -3.08852    9.53367   15.31494
      H1    -2.20141    9.47583   15.69029
       H    -1.89756   10.17243   19.31820
       O    -2.77223   10.49775   19.56558
      H1    -3.31758    9.74081   19.41959
       H    -3.82964   12.86913   14.97858
       O    -4.25106   12.01655   15.01632
      H1    -4.98885   12.05711   15.67624
       H     0.29926   10.56087   15.41308
       O    -0.33530   10.47517   16.12824
      H1    -0.55257   11.39482   16.47897
       H    -5.95703   12.19269   17.32670
       O    -6.27877   11.62492   16.61153
      H1    -6.79872   12.28714   16.12708
       H    -7.92990    5.25062   19.46381
       O    -8.79933    5.26367   19.05838
      H1    -8.76964    5.45015   18.14189
       H    -5.86700    9.29207   16.32341
       O    -5.44634    8.47241   16.16025
      H1    -4.55898    8.76640   15.84622
       H    -5.06992    8.71536   17.98235
       O    -4.62735    8.37110   18.75569
      H1    -5.21489    8.65032   19.52326

