69
frame 0 | Written by MDAnalysis XYZWriter (release 2.4.3)
       H    -2.68699   13.78505    3.86905
       O    -2.80705   14.69596    3.61132
      H1    -3.43905   14.68461    2.87743
       H    -4.83495   18.66191    5.15821
       O    -5.72164   18.45268    4.82866
      H1    -5.57150   18.08064    3.92557
       H    -1.83457   15.89599    2.95262
       O    -1.26329   16.71808    2.81450
      H1    -0.91305   16.71956    3.72120
       H    -1.55813   14.82963    7.61560
       O    -1.63971   15.78054    7.50679
      H1    -2.45509   15.87080    6.88162
       H     2.79954   18.24977    7.22585
       O     2.33292   18.05834    8.06910
      H1     1.40125   18.48379    7.87331
       H     2.29970   15.05689    7.97582
       O     3.05299   15.48061    8.48138
      H1     2.81521   16.41251    8.34539
       H     2.19048   17.65355    3.50247
       O     2.14571   16.99085    4.24264
      H1     2.76605   17.27190    4.89048
       H    -2.09661   12.30769   11.33292
       O    -1.55138   13.08242   11.13124
      H1    -1.60222   13.11447   10.17666
       H     1.49630   13.23546    5.98895
       O     1.76324   13.45403    6.88936
      H1     1.97788   12.57396    7.26320
       H    -2.38495   16.69159   10.97961
       O    -2.49924   16.84918   10.06038
      H1    -1.93386   16.27626    9.51519
       H    -1.55345   12.96037    7.72033
       O    -1.03685   13.36660    8.40478
      H1    -0.05400   13.39569    8.17398
       H    -0.31935   14.62194   12.27236
       O     0.59554   14.81435   12.44685
      H1     0.84416   13.97402   12.86449
       H     1.77319   14.28928   11.26505
       O     2.49518   14.07930   10.64274
      H1     2.45302   14.75975    9.96190
       H    -2.37586   11.98566    4.95263
       O    -2.04680   12.11682    3.97204
      H1    -2.12669   11.30042    3.49749
       H    -0.22062   19.01101    9.03838
       O    -0.05364   19.14295    8.09757
      H1    -0.73458   18.67247    7.57174
       H    -2.66234   11.21579    7.13885
       O    -2.70392   12.02234    6.63358
      H1    -3.64301   12.23277    6.61718
       H    -0.22292   12.47997    4.37528
       O     0.66573   12.81302    4.45730
      H1     0.73112   13.59603    3.84796
       H     0.66605   17.16200    5.57672
       O    -0.32681   17.02327    5.66854
      H1    -0.52751   16.49307    6.42805
       H    -3.90079   17.35427    8.96977
       O    -4.57799   17.93303    8.56361
      H1    -4.32052   18.03392    7.65860
       H    -6.12761   17.02490    8.77659
       O    -7.06206   16.76089    8.80529
      H1    -6.94446   15.92033    9.31758
       H    -3.38833   20.00440    6.47381
       O    -3.29177   19.06830    6.15741
      H1    -2.62193   19.12953    5.46402
       H    -6.12611   17.11196    5.93796
       O    -6.58235   16.27436    6.17355
      H1    -6.85057   16.28764    7.10563
       H    -4.95334   15.71000    5.83952
       O    -4.00544   15.70462    5.86884
      H1    -3.60778   15.19973    5.08279

