69
frame 7 | Written by MDAnalysis XYZWriter (release 2.4.3)
       H    -3.86500    2.90800   -1.84552
       O    -3.54868    2.57122   -2.69609
      H1    -4.35037    2.53127   -3.27734
       H    -1.64264    4.31515    0.48514
       O    -1.08618    3.75755   -0.06478
      H1    -1.04663    2.92021    0.36711
       H    -1.79674   -2.39698   -5.78103
       O    -2.45994   -2.11342   -5.16502
      H1    -1.97455   -1.93910   -4.34727
       H     0.32501    4.39110   -6.11791
       O    -0.01182    4.24707   -7.00220
      H1     0.76688    3.80727   -7.49505
       H    -0.12700    2.56763   -5.32107
       O     0.41569    1.77578   -5.54054
      H1    -0.19203    1.32448   -6.18918
       H     3.10470    4.92642    0.94067
       O     3.41137    3.94409    0.87730
      H1     2.67073    3.52874    0.44102
       H     1.41691    1.19224   -0.67672
       O     1.82279    1.86694   -0.08301
      H1     2.73047    1.51398   -0.09495
       H     1.85413   -2.10855   -0.66988
       O     2.42903   -2.84007   -0.98652
      H1     2.39376   -2.58569   -1.90792
       H    -0.91908    6.57022   -1.67935
       O    -0.40301    5.90772   -2.14343
      H1    -0.72267    5.10429   -1.71337
       H     2.78609   -2.68046   -4.05161
       O     1.91206   -2.44034   -3.82750
      H1     1.54277   -2.16358   -4.67412
       H     2.23744    3.83675   -3.30709
       O     2.20613    2.93639   -2.97588
      H1     2.54778    3.00227   -2.07947
       H    -2.48825   -0.22281   -5.41790
       O    -2.76512    0.67685   -5.14215
      H1    -1.99215    1.19677   -5.32786
       H    -2.76123   -0.75666   -2.59999
       O    -1.78293   -0.72727   -2.48240
      H1    -1.51260    0.21236   -2.56816
       H    -4.20268    5.09787   -5.98891
       O    -3.58840    5.45917   -5.29155
      H1    -2.85497    4.83998   -5.11585
       H    -0.78396    2.51009   -1.31941
       O    -0.60694    1.86664   -2.00424
      H1     0.18764    2.19321   -2.51642
       H     3.85819    2.18006   -5.44216
       O     3.24582    2.48374   -6.12074
      H1     2.37667    2.23330   -5.73307
       H     2.50887    6.41774   -4.18757
       O     2.27115    5.82846   -3.47788
      H1     1.37866    6.16231   -3.25720
       H     4.36371    4.33008   -0.54862
       O     4.60632    4.69966   -1.42716
      H1     4.22850    5.60730   -1.34526
       H    -1.57431    0.51092    0.45683
       O    -1.52953    1.32042    1.01897
      H1    -2.44401    1.49092    1.30848
       H     1.75458    1.87543    2.03501
       O     1.69487    1.45842    2.90396
      H1     2.53102    0.89183    2.96262
       H    -2.03972    3.50286   -4.01583
       O    -1.47231    4.24149   -4.34585
      H1    -1.52436    5.00726   -3.74003
       H     0.03347   -1.24918   -0.04490
       O     0.50583   -0.80256   -0.72612
      H1    -0.22410   -0.70415   -1.35621
       H    -5.49319    0.17268   -2.07125
       O    -4.50021   -0.00419   -1.96640
      H1    -3.99119    0.77551   -2.22823

