69
frame 7 | Written by MDAnalysis XYZWriter (release 2.4.3)
       H    -9.24882   -2.35873    2.39919
       O    -8.29173   -2.26374    2.66316
      H1    -8.04276   -1.31780    2.62367
       H    -7.49304    1.15709    6.31426
       O    -6.89630    1.89515    6.42391
      H1    -5.96738    1.57770    6.22446
       H    -2.46405    1.81716    3.89930
       O    -3.43607    1.88180    3.96656
      H1    -3.74577    1.53176    3.11859
       H    -0.30176   -3.61406    7.34086
       O    -1.12819   -3.13218    7.19951
      H1    -0.84496   -2.32608    6.66110
       H    -7.32557   -3.40990    8.64172
       O    -7.45321   -2.71103    9.35022
      H1    -6.52282   -2.44240    9.48610
       H    -4.42512    2.02097    0.55481
       O    -4.22293    1.51670    1.41178
      H1    -4.74816    0.72624    1.19225
       H    -8.23007   -2.46878    5.78067
       O    -7.56990   -2.83934    5.16625
      H1    -7.76403   -2.67957    4.19565
       H    -7.02063    2.88326    4.71414
       O    -6.73801    3.29270    3.88246
      H1    -6.00316    3.83094    4.13622
       H    -4.68982   -0.82164   -0.35444
       O    -5.08962   -1.09623    0.46354
      H1    -6.03308   -1.20740    0.12503
       H     0.87738   -0.70148    6.39119
       O     0.19307   -0.68247    5.68135
      H1    -0.20128    0.17388    5.49925
       H    -5.45108   -0.41895    9.38447
       O    -5.12573   -1.32375    9.55356
      H1    -4.74102   -1.29620   10.42055
       H    -6.36929   -0.22129    3.86276
       O    -6.81144    0.04806    3.01204
      H1    -7.09964    0.96958    3.16284
       H    -4.01049    0.50443    6.91745
       O    -4.49828    0.46044    6.08614
      H1    -3.96623    0.90087    5.40712
       H    -2.51149   -4.51099    8.06235
       O    -2.97897   -5.23781    8.49831
      H1    -3.81313   -5.19302    8.00632
       H    -4.66349   -1.29158    5.15661
       O    -4.77099   -2.24970    4.80636
      H1    -5.74746   -2.31526    4.78143
       H    -2.38384   -3.91124    5.72257
       O    -2.38202   -4.61316    5.07717
      H1    -3.33198   -4.66695    4.77480
       H    -8.92380   -0.04669    7.51245
       O    -8.45910   -0.81696    7.12771
      H1    -7.93526   -1.26025    7.83953
       H    -1.52970   -1.88716    2.05846
       O    -0.76818   -2.04584    1.43934
      H1    -0.88145   -2.92122    1.04427
       H    -6.00295   -3.88396    6.29981
       O    -5.93978   -4.48388    7.02566
      H1    -5.62014   -5.25958    6.50190
       H    -4.18043    5.13992    3.79144
       O    -4.08406    4.51143    4.52166
      H1    -4.08828    3.57409    4.19346
       H    -3.78129   -1.59698    3.38440
       O    -3.31867   -1.25451    2.54618
      H1    -4.01404   -1.22044    1.78427
       H    -6.64047    1.58021    8.24525
       O    -6.18817    1.09578    8.99739
      H1    -6.80311    0.98324    9.74842
       H    -4.62787   -4.28580    0.15795
       O    -4.90198   -4.05361    1.01852
      H1    -5.11979   -3.13980    0.86046

