69
frame 6 | Written by MDAnalysis XYZWriter (release 2.4.3)
       H   -11.03873    9.14874  -11.54664
       O   -10.29297    8.97508  -12.16645
      H1   -10.51524    8.04880  -12.36504
       H   -11.24618    7.66827  -17.09598
       O   -10.36483    7.78879  -16.74565
      H1    -9.77004    7.86161  -17.50480
       H   -13.95320   11.63717  -12.37678
       O   -13.87975   11.39453  -11.44163
      H1   -14.63740   11.87045  -10.94339
       H   -13.08751    7.28746  -16.79749
       O   -13.14321    7.63658  -17.70728
      H1   -13.39611    8.55680  -17.63784
       H   -15.45996    8.21358   -9.45120
       O   -15.21443    8.46543  -10.34531
      H1   -14.87140    9.37673  -10.27322
       H   -11.27332    9.93850   -9.51600
       O   -12.08542    9.63502   -9.92047
      H1   -12.38560   10.45789  -10.42761
       H   -10.59780    6.27437  -12.57506
       O   -10.36743    6.55687  -13.47126
      H1    -9.46855    6.18504  -13.62355
       H   -12.26105    5.62486  -10.37185
       O   -12.03215    5.40126  -11.29175
      H1   -12.89982    5.28301  -11.73962
       H   -17.69138   11.49643  -12.93919
       O   -17.98739   10.63107  -13.22355
      H1   -17.92064   10.12295  -12.36499
       H   -16.80227    6.73721  -13.45782
       O   -16.10226    6.39456  -12.87477
      H1   -15.36905    7.02058  -12.85218
       H   -12.90466   12.93905  -14.04021
       O   -13.76376   12.48371  -13.92338
      H1   -14.18173   12.40809  -14.78066
       H   -11.77175    9.58902  -13.81192
       O   -11.83974    9.75879  -14.77785
      H1   -11.66683    8.90538  -15.23704
       H   -12.31705    7.84996   -9.44476
       O   -12.40134    7.08185   -8.86701
      H1   -11.51592    6.79890   -8.64749
       H   -17.69514    7.87160  -16.04789
       O   -17.10921    8.25144  -16.70191
      H1   -16.51517    8.84184  -16.20804
       H   -17.06516    6.35957  -10.98480
       O   -17.24050    6.13876  -10.08311
      H1   -18.16511    5.90495   -9.90585
       H   -15.59094   10.68654  -15.58408
       O   -15.84940    9.92925  -15.09514
      H1   -16.66016   10.12548  -14.60159
       H   -15.18247    4.78020  -13.07435
       O   -14.37757    4.22173  -13.13370
      H1   -14.59979    3.57420  -12.47752
       H   -13.95380   10.67357  -17.36844
       O   -13.06341   10.45142  -17.12964
      H1   -13.04784   10.39043  -16.16904
       H   -18.00109    9.58921  -10.08267
       O   -18.63490    9.28433  -10.85156
      H1   -18.63726    8.31713  -10.74781
       H   -13.09746    6.99429  -14.31010
       O   -12.63539    6.66452  -15.05764
      H1   -11.76110    6.62364  -14.66223
       H   -14.29182    8.61095  -12.10123
       O   -14.16559    8.39480  -13.06754
      H1   -14.67267    9.01347  -13.60467
       H    -9.33350   11.95879  -14.83874
       O   -10.25174   11.94605  -15.15834
      H1   -10.69367   11.08261  -15.11730
       H   -18.78621    7.26269  -13.51959
       O   -18.18699    7.85778  -14.01519
      H1   -18.59959    8.72948  -13.83931

