69
frame 7 | Written by MDAnalysis XYZWriter (release 2.4.3)
       H     1.83337  -13.51038    7.94322
       O     2.27698  -13.01918    8.66403
      H1     2.61557  -12.15863    8.27338
       H     7.44982  -13.58133    6.10267
       O     7.30888  -14.18743    5.38992
      H1     7.48606  -13.80707    4.52263
       H     1.95929  -14.29741    1.21993
       O     2.14469  -14.33470    2.12181
      H1     2.99225  -14.81114    2.11918
       H     4.59257  -10.63956    2.06299
       O     5.52204  -10.97580    1.97703
      H1     6.10579  -10.21707    1.88684
       H     2.81070  -10.66048    3.50194
       O     3.05301   -9.91763    2.95076
      H1     2.40552   -9.15335    3.00775
       H     4.59810  -18.50585    5.22551
       O     4.80818  -19.23964    4.63560
      H1     4.34361  -19.06925    3.77888
       H     8.72908  -12.91552    2.59969
       O     7.97781  -13.50878    2.78983
      H1     7.20398  -13.21172    2.33992
       H    -0.04255  -13.37078    5.36353
       O     0.64614  -13.11428    6.01583
      H1     1.39218  -12.91061    5.45383
       H     4.79671  -16.25227    1.59832
       O     4.60752  -15.46142    2.17053
      H1     4.90722  -14.61752    1.78121
       H     5.94940  -11.76849    9.78706
       O     5.23998  -12.34410    9.43061
      H1     5.64931  -13.23263    9.54353
       H     7.19127  -10.28978    5.45293
       O     6.66734  -11.05829    5.15565
      H1     6.75815  -11.16611    4.21327
       H     4.23561  -17.34270    7.66974
       O     4.83981  -17.41018    8.43145
      H1     4.82879  -18.36408    8.69339
       H     5.38313  -18.51326    0.79901
       O     5.17484  -18.10476    1.61175
      H1     5.96069  -17.83215    2.08698
       H     3.45102  -16.25662    5.63609
       O     3.33043  -17.06306    6.18977
      H1     2.37236  -17.05862    6.38866
       H     5.69267  -12.06555    6.23155
       O     4.87640  -12.49301    6.61589
      H1     4.98922  -12.42976    7.57955
       H    -0.22424  -16.19742    6.56051
       O     0.70407  -16.09611    6.33418
      H1     0.99414  -15.21564    6.11764
       H     3.64413  -11.18210    6.85499
       O     2.85810  -10.86924    7.35163
      H1     3.08224  -10.04955    7.79537
       H     5.13575  -14.50282    5.00459
       O     4.33157  -14.94198    4.71890
      H1     4.46264  -15.15180    3.77621
       H     4.01440   -9.22533    4.44510
       O     4.74803   -9.01800    5.00028
      H1     5.30407   -9.78221    5.14924
       H     3.41322  -13.26978    4.59768
       O     3.10624  -12.55643    4.03106
      H1     2.53153  -12.93243    3.31456
       H     7.06325  -15.22723    8.61428
       O     6.89355  -14.63823    9.30296
      H1     7.44258  -14.93614   10.06594
       H     9.02485  -16.74094    4.00675
       O     8.62343  -16.34771    3.16183
      H1     8.51460  -15.39406    3.34475
       H     7.05774  -15.69014    6.41119
       O     7.21952  -16.31822    7.14041
      H1     6.39813  -16.68961    7.45098

