69
frame 6 | Written by MDAnalysis XYZWriter (release 2.4.3)
       H    -7.85093   13.14784   14.67109
       O    -8.04224   12.91783   15.64405
      H1    -8.69385   13.52664   15.85631
       H    -9.20630   10.47470   14.10032
       O    -9.64111   10.91310   14.82394
      H1    -8.98943   11.51498   15.22335
       H   -10.92580   13.71007   14.69536
       O   -11.27618   12.99129   14.17485
      H1   -10.66924   12.24278   14.37289
       H    -9.77782   14.54273   18.87332
       O   -10.20199   15.16332   18.24330
      H1   -10.19927   15.92148   18.87339
       H   -13.84284   12.15799   16.34119
       O   -13.55093   11.48170   15.76358
      H1   -12.84180   12.04599   15.35197
       H   -13.78847   14.97888   17.32045
       O   -14.42082   15.14018   16.59536
      H1   -14.38969   16.14204   16.50545
       H    -5.65303   15.57623   14.02643
       O    -6.32544   15.87689   14.59022
      H1    -7.07319   15.56081   14.05458
       H   -11.07578   16.21044   12.06795
       O   -10.78198   15.44376   11.51448
      H1   -11.52243   14.80068   11.67708
       H    -8.24711   17.03999   19.62384
       O    -7.35570   17.46612   19.54974
      H1    -7.20211   17.71800   18.63360
       H   -12.20831   18.63717   16.91139
       O   -12.62380   17.75317   16.74551
      H1   -12.03377   17.04112   16.86854
       H    -9.28436   13.96191   12.99651
       O    -8.30530   13.85741   13.10390
      H1    -7.98281   13.17883   12.45331
       H   -15.62144   18.33985   16.53634
       O   -15.28507   17.82367   15.78838
      H1   -14.36209   17.87933   15.91811
       H   -13.15019   13.97809   13.84189
       O   -13.60898   14.84691   13.94212
      H1   -13.79831   14.79674   14.90270
       H   -12.84973   16.43579   13.38235
       O   -12.79127   17.31735   12.99325
      H1   -12.89899   18.00599   13.63989
       H    -9.86475   16.00908   15.10116
       O   -10.06824   15.16372   15.59098
      H1   -10.14134   15.40086   16.52440
       H   -12.68517   12.64798   11.80967
       O   -12.77661   13.57829   11.61010
      H1   -12.97952   13.66069   10.69948
       H    -8.79239   17.50388   16.50091
       O    -9.52413   18.07138   16.16698
      H1    -9.10715   18.64776   15.45848
       H   -12.02585   12.85877   18.34018
       O   -12.55425   13.65436   18.46588
      H1   -11.88008   14.33529   18.41396
       H    -6.22639   15.09162   16.36197
       O    -5.47064   15.04645   16.97436
      H1    -4.68149   14.87758   16.45256
       H    -9.63118   18.76338   12.18616
       O    -9.65816   18.89345   13.19052
      H1   -10.53303   19.26393   13.52337
       H    -8.92677   17.19925   10.55839
       O    -9.47558   18.01809   10.44521
      H1    -9.06108   18.55833    9.77949
       H    -5.83331   17.28258   16.57723
       O    -6.42217   17.99408   16.94871
      H1    -5.80010   18.65997   17.40536
       H    -7.90988   15.32542   11.44197
       O    -8.14428   15.41800   10.51401
      H1    -9.07429   15.23937   10.57633

