69
frame 7 | Written by MDAnalysis XYZWriter (release 2.4.3)
       H    -7.64159   -8.36252  -17.64333
       O    -7.91671   -9.29721  -17.66568
      H1    -7.86862   -9.64629  -18.52516
       H    -9.64482   -4.86603  -16.54749
       O    -9.93049   -5.74913  -16.78262
      H1   -10.32435   -5.59182  -17.63028
       H    -7.94184   -9.43647  -15.89182
       O    -7.92820   -9.40352  -14.89570
      H1    -8.12479   -8.49444  -14.63428
       H   -10.68242   -9.61982  -19.22884
       O   -10.35353   -8.70206  -19.45474
      H1    -9.45406   -8.62942  -18.94106
       H   -12.35747   -8.73827  -16.61147
       O   -12.36756   -7.70356  -16.58474
      H1   -11.61928   -7.47481  -17.13572
       H    -7.38436   -3.18773  -18.06118
       O    -7.65411   -3.35112  -19.00569
      H1    -7.09436   -4.12151  -19.28719
       H    -7.29525   -2.75199  -13.27774
       O    -6.70624   -2.01767  -13.36810
      H1    -6.93448   -1.44122  -12.63020
       H   -11.45627   -3.64596  -13.25255
       O   -10.80715   -4.31689  -13.08634
      H1   -11.04616   -5.08048  -13.61515
       H    -9.75951   -2.32413  -16.26673
       O    -9.28906   -2.95596  -15.76343
      H1    -9.72264   -3.01337  -14.92553
       H    -2.22521   -4.55863  -15.09351
       O    -2.96282   -4.81186  -15.69378
      H1    -3.47122   -4.07188  -16.10836
       H    -6.36143   -6.86205  -17.00152
       O    -7.24581   -7.00932  -16.73369
      H1    -7.77769   -6.30361  -17.07485
       H    -3.42679   -9.37950  -17.27258
       O    -3.23422   -9.81859  -16.43510
      H1    -3.72089   -9.37015  -15.75315
       H    -6.05560   -9.48665  -14.64812
       O    -5.17555   -9.33743  -14.35054
      H1    -5.04255   -8.39296  -14.07141
       H    -3.75310   -9.34644  -19.68296
       O    -4.17545   -8.82856  -18.99046
      H1    -4.99934   -8.45586  -19.37878
       H    -8.11257    0.05169  -18.22237
       O    -7.44091   -0.34031  -17.59725
      H1    -6.98322   -1.07995  -17.93489
       H   -12.25164   -7.47967  -13.66809
       O   -11.64832   -6.78388  -14.00911
      H1   -11.64241   -6.98924  -14.95970
       H   -13.55998   -4.14826  -17.11386
       O   -12.65554   -3.79637  -16.97305
      H1   -12.34643   -4.28580  -16.23880
       H    -3.70899   -6.34147  -13.52872
       O    -4.65448   -6.49051  -13.39542
      H1    -5.23333   -5.97800  -13.98577
       H    -9.13919   -4.10744  -12.51535
       O    -8.19338   -4.18179  -12.60583
      H1    -7.93874   -4.56400  -13.47437
       H    -7.48122   -2.86650  -16.02693
       O    -6.62372   -3.17955  -16.35683
      H1    -5.96159   -2.38168  -16.18472
       H    -3.94738   -5.91758  -17.10817
       O    -4.67107   -6.51609  -17.43641
      H1    -4.25738   -7.26882  -17.81731
       H    -6.62584   -4.45625  -15.19716
       O    -6.80999   -5.24001  -14.64214
      H1    -6.90870   -5.94429  -15.30408
       H    -7.41355  -12.26624  -17.68418
       O    -8.19030  -12.02536  -17.14638
      H1    -8.23097  -11.09811  -17.28501

