69
frame 7 | Written by MDAnalysis XYZWriter (release 2.4.3)
       H    -7.80518   13.46504   14.57156
       O    -8.19200   13.22764   15.46723
      H1    -8.83297   13.81444   15.86859
       H   -11.90982   13.81587   15.40987
       O   -12.29152   13.10345   14.89063
      H1   -11.52529   12.46948   14.71070
       H   -10.61671   19.88136   18.15301
       O   -10.86571   18.94602   17.96527
      H1   -10.35603   18.63987   17.18035
       H   -11.46125   15.90395   18.88152
       O   -12.04742   15.26670   18.39995
      H1   -12.73570   15.81359   17.98866
       H   -15.32274   14.32728   16.90660
       O   -15.48127   14.50095   15.93237
      H1   -15.80049   15.42898   15.94667
       H    -4.97090   16.01113   13.84434
       O    -5.65164   16.60406   14.23643
      H1    -6.37496   16.30205   13.66236
       H   -10.29248   16.05672   12.17613
       O    -9.95232   15.23253   11.85092
      H1   -10.45112   14.87365   11.09466
       H    -7.91011   16.63723   19.25644
       O    -7.00805   16.98539   19.17782
      H1    -6.99460   17.27072   18.22566
       H   -13.34206   18.13204   17.54487
       O   -13.15272   17.63485   16.74592
      H1   -12.34764   17.87508   16.25041
       H    -8.45110   14.96447   12.73286
       O    -7.64571   14.86840   13.34636
      H1    -7.32686   13.99251   13.09795
       H   -16.54409   17.69367   16.28504
       O   -15.86209   17.05380   16.24260
      H1   -14.93880   17.43559   16.38242
       H   -13.50377   14.73274   13.35630
       O   -14.13896   15.43934   13.61639
      H1   -14.42083   15.25518   14.50983
       H    -7.68551   11.38849   17.47492
       O    -8.42947   11.37344   18.17508
      H1    -7.97172   11.04698   18.90086
       H   -13.95675   16.90930   12.94438
       O   -14.01111   17.77536   12.55448
      H1   -13.31611   18.23833   13.02203
       H   -10.24171   15.59523   15.98088
       O   -10.59778   14.72067   16.25488
      H1   -11.07243   14.88072   17.09485
       H   -15.45409   16.38642   17.98500
       O   -15.07154   16.00179   18.79403
      H1   -15.20795   16.65870   19.54779
       H    -8.75274   17.30753   16.06693
       O    -9.70420   17.53129   15.90753
      H1    -9.84349   17.44741   14.96057
       H   -12.49415   11.90088   19.03064
       O   -13.10703   12.67701   19.01881
      H1   -12.54832   13.36266   18.63949
       H   -10.10362   17.04452   20.24704
       O    -9.95226   16.84752   19.30651
      H1   -10.20705   17.67892   18.84322
       H    -6.83939   14.75774   17.48223
       O    -5.97898   14.37702   17.29799
      H1    -5.76145   14.68877   16.40467
       H    -9.81775   18.18520   12.63783
       O   -10.45358   17.69507   13.25612
      H1   -10.97852   18.45761   13.53118
       H   -16.22645   14.75300   19.51735
       O   -16.85133   14.08961   19.75758
      H1   -17.65354   14.39592   19.27500
       H    -6.72315   17.37705   15.64547
       O    -7.14085   17.64567   16.44860
      H1    -6.62836   18.38046   16.75595

