69
frame 7 | Written by MDAnalysis XYZWriter (release 2.4.3)
       H     4.85303   11.76079   18.74634
       O     4.28507   12.07917   18.01275
      H1     4.82345   11.95291   17.20469
       H     8.34323   18.04023   13.31912
       O     8.70033   17.22456   12.97137
      H1     8.32352   16.60934   13.61077
       H    10.24257    9.55947   17.77318
       O     9.80902    8.67335   17.64562
      H1     9.13611    8.69755   18.29828
       H    11.95992   18.94191   15.31099
       O    12.43116   18.29821   14.76375
      H1    13.22270   17.97404   15.21627
       H     6.99368   18.39840   15.51826
       O     6.65061   18.95725   14.78859
      H1     5.70279   18.96759   14.95543
       H    10.32689   14.01182   17.34789
       O    10.03457   14.82182   17.84363
      H1    10.10912   14.60207   18.75151
       H    12.79166   14.05068   17.05980
       O    13.31418   14.49614   17.76187
      H1    13.72544   13.79888   18.27744
       H     7.56347   12.50918   18.02002
       O     7.59889   11.49829   18.06756
      H1     8.38056   11.35360   18.59076
       H    14.35894   17.18277   19.78586
       O    14.05370   16.24099   19.91088
      H1    13.51464   15.88320   19.24218
       H     6.57469   15.01302   14.03015
       O     7.52592   15.19342   14.37242
      H1     7.77440   14.30254   14.64399
       H    11.13647   13.91804   15.12461
       O    11.04535   13.21441   15.79284
      H1    11.79241   12.61285   15.60833
       H    15.78867   14.03432   17.83008
       O    16.11271   14.89268   18.26462
      H1    15.31946   15.42559   18.44360
       H    12.58034   18.70021   17.99508
       O    12.24065   17.95512   18.43709
      H1    11.28714   17.87440   18.19154
       H     9.25451   12.55131   15.30367
       O     8.38447   12.66113   14.81490
      H1     7.61420   12.38830   15.29667
       H    14.07379   11.83132   15.23622
       O    13.17506   11.55286   15.51541
      H1    12.74224   11.24368   14.69771
       H     7.91917   14.66063   17.47916
       O     7.13591   14.20002   17.82654
      H1     7.11426   14.62823   18.69071
       H     9.05453   12.46688   12.92541
       O     9.37009   12.57596   12.01803
      H1     9.87004   11.82993   11.84050
       H     6.63176   16.22695   16.51516
       O     6.91025   17.11910   16.86352
      H1     6.53812   17.26306   17.75034
       H    10.01959   16.48062   17.62816
       O     9.73550   17.39075   17.57306
      H1     8.83764   17.33279   17.37821
       H    14.40465   16.21422   16.03912
       O    14.40200   17.09770   16.47730
      H1    13.83608   17.06277   17.26664
       H     6.67581    8.75518   18.26476
       O     6.09867    9.26669   17.68742
      H1     6.57149   10.11325   17.62393
       H    10.38476   15.93205   13.64952
       O    11.23357   15.64931   14.06834
      H1    11.51416   16.44796   14.61020
       H    12.49628   10.80933   18.52117
       O    12.04930   10.09931   18.05045
      H1    12.53028    9.28051   18.28185

