69
frame 8 | Written by MDAnalysis XYZWriter (release 2.4.3)
       H    -8.80934   18.92209    1.66783
       O    -9.31599   18.44099    0.99521
      H1   -10.23298   18.37508    1.26105
       H    -5.03519   18.04090    4.55577
       O    -5.84475   17.51638    4.64796
      H1    -5.84001   17.00304    3.84316
       H    -9.18166   16.00025    8.55602
       O    -9.46889   15.85251    7.61907
      H1    -9.06270   16.60153    7.13925
       H    -7.13703   13.27912    7.44397
       O    -6.85441   14.14094    7.80548
      H1    -7.59710   14.49536    8.35406
       H    -2.69366   19.83321    3.31586
       O    -2.52707   18.96641    2.96414
      H1    -3.33769   18.72914    2.49067
       H    -8.39599   17.46988    4.94433
       O    -8.46160   17.61049    5.90235
      H1    -7.65534   17.99100    6.02788
       H    -4.13359   15.94573    8.06503
       O    -3.60167   15.90203    8.86227
      H1    -3.01965   15.09968    8.62481
       H   -12.28920   17.87371    1.37988
       O   -11.86839   18.25862    2.18111
      H1   -11.25243   17.57419    2.57254
       H    -9.57292   15.98039    3.43746
       O    -9.89813   16.88687    3.48001
      H1   -10.41528   16.80433    4.28954
       H    -5.55065   19.51215    6.70674
       O    -6.41865   19.23029    7.10694
      H1    -6.94227   20.01525    7.20221
       H    -4.62422   18.15471    0.23705
       O    -4.76429   18.14657    1.17227
      H1    -4.97054   19.05963    1.46794
       H    -3.87985   17.42103   12.09757
       O    -3.07961   17.51589   12.67028
      H1    -2.97280   18.46392   12.77504
       H   -12.96624   17.48989    8.35074
       O   -12.91962   17.91520    7.48830
      H1   -12.38152   17.29313    6.96084
       H    -5.22193   15.82747   10.24828
       O    -5.57565   16.31448   10.96078
      H1    -5.71514   17.18875   10.61886
       H    -9.53145   18.56885   12.82117
       O   -10.11817   18.20910   13.53733
      H1   -10.83911   18.77713   13.63616
       H    -7.22547   15.93309    1.81220
       O    -6.36353   16.13375    2.24163
      H1    -5.91185   16.85378    1.77367
       H    -7.65534   19.17009   11.04323
       O    -8.21698   19.50329   11.70627
      H1    -8.64972   20.25896   11.33325
       H    -0.89864   17.46771    6.59937
       O    -1.49475   17.72916    7.37333
      H1    -2.02288   16.93519    7.59173
       H   -10.81387   15.86242    6.25265
       O   -11.45924   16.26845    5.71618
      H1   -11.85518   15.46010    5.28284
       H    -5.52665   19.58392   10.07535
       O    -6.20188   18.90401   10.01689
      H1    -6.30665   18.81125    9.05314
       H    -7.36675   16.05259   10.36938
       O    -8.23347   15.77358   10.04271
      H1    -8.77096   15.80039   10.82641
       H    -5.59449   16.43386    5.99258
       O    -5.17087   15.83702    6.65978
      H1    -5.87542   15.16470    6.91654
       H    -3.85103   14.95615    5.58283
       O    -2.98580   14.56568    5.61194
      H1    -2.69637   14.45900    4.74235

