69
frame 7 | Written by MDAnalysis XYZWriter (release 2.4.3)
       H    20.10671  -18.25721   -3.60162
       O    19.77781  -17.59594   -4.22936
      H1    18.76435  -17.60687   -4.18974
       H    16.68457  -14.43047    0.20712
       O    16.59040  -13.66540   -0.35266
      H1    16.62002  -14.01315   -1.28719
       H    10.75370  -14.10673    1.54566
       O    11.12743  -14.27877    2.43270
      H1    11.20630  -15.26224    2.42621
       H    19.06594  -14.06297    0.41220
       O    19.63436  -13.33599    0.14381
      H1    19.82386  -12.89988    1.03093
       H    13.25797  -16.46619   -2.85427
       O    12.47955  -15.94326   -2.76471
      H1    12.23024  -15.69359   -3.65537
       H    13.57568  -17.21760   -5.66738
       O    12.77043  -17.75546   -5.33316
      H1    12.03944  -17.41839   -5.91068
       H    13.90580  -12.35625    1.41225
       O    14.26502  -12.19069    0.52416
      H1    15.12644  -12.69525    0.44344
       H    10.24634  -18.89306   -0.03807
       O    10.87560  -19.28458    0.61232
      H1    10.99984  -18.52517    1.23649
       H    18.53726  -18.54193    1.64222
       O    18.11598  -18.91455    2.44116
      H1    17.66719  -19.72320    2.18152
       H    15.11435  -15.89098   -5.82858
       O    15.45254  -16.76735   -5.56625
      H1    15.29405  -17.24788   -6.38711
       H    14.74431  -17.98944   -1.55818
       O    15.07041  -17.05750   -1.47498
      H1    15.48559  -17.05209   -0.59739
       H    13.17379  -13.01970   -0.56940
       O    12.44535  -13.42099   -1.03056
      H1    12.49067  -14.35898   -0.74431
       H    16.83140  -15.36382   -3.25679
       O    16.92653  -14.49174   -2.94583
      H1    16.19061  -14.04486   -3.37757
       H    17.77315  -15.51455    4.48497
       O    16.89696  -15.50896    4.07432
      H1    16.34641  -15.15086    4.77961
       H    10.58430  -19.06949   -2.69590
       O    10.51619  -18.13051   -2.75826
      H1    11.27629  -17.64234   -3.10284
       H    13.47615  -12.68817   -3.18642
       O    14.18114  -12.63558   -3.81479
      H1    14.68633  -11.88017   -3.49313
       H    11.16802  -16.43814   -1.08878
       O    10.95536  -16.14004   -0.19486
      H1    10.05980  -15.73328   -0.35324
       H    17.44280  -16.78352    1.33188
       O    16.74341  -16.11707    1.38216
      H1    16.67988  -15.83056    2.29806
       H    18.86402  -13.17309   -5.29755
       O    17.95049  -13.11356   -4.98761
      H1    17.79610  -13.63749   -4.15918
       H    13.53417  -17.47882    3.46135
       O    14.35057  -17.89932    3.73357
      H1    15.13552  -17.25233    3.78474
       H    11.53749  -16.67238    1.57986
       O    11.41153  -17.05175    2.49180
      H1    10.45929  -17.08848    2.57332
       H    20.08481  -17.13213   -0.01935
       O    19.18422  -17.37084    0.12168
      H1    18.98537  -18.17006   -0.37956
       H    16.47942  -16.94122   -4.38928
       O    17.12401  -17.12654   -3.64296
      H1    16.58986  -17.28390   -2.84320

