69
frame 0 | Written by MDAnalysis XYZWriter (release 2.4.3)
       H     8.98153  -19.09789   -3.55756
       O     8.32468  -18.96916   -4.25557
      H1     7.72063  -19.65872   -4.05210
       H    16.76045  -13.29272    0.34563
       O    16.02817  -12.79039   -0.06306
      H1    15.96638  -13.04896   -1.02265
       H    12.54887  -14.13271   -2.11010
       O    12.81367  -14.49067   -2.99443
      H1    13.21526  -15.35486   -2.92358
       H    13.38313  -12.61746    2.06202
       O    13.39415  -12.82298    1.11655
      H1    14.30137  -13.25486    1.05745
       H     9.55938  -17.41239   -0.08639
       O     8.91540  -17.82254   -0.63687
      H1     9.41729  -17.88236   -1.45801
       H    13.83715  -11.84451   -4.77463
       O    14.16928  -12.66728   -4.39369
      H1    13.42583  -13.23309   -4.28840
       H    18.66729  -17.43736    2.12149
       O    17.85239  -17.85373    2.38660
      H1    17.17602  -17.59165    1.79593
       H    16.78802  -16.11478   -5.67797
       O    17.03866  -16.96603   -5.28008
      H1    16.34927  -17.54731   -5.58216
       H    13.78893  -18.00643   -2.68889
       O    13.86092  -17.20409   -2.18009
      H1    13.20333  -17.22459   -1.45392
       H    12.13575  -13.56419   -0.10336
       O    11.43408  -13.78621   -0.70303
      H1    10.91320  -14.52794   -0.41513
       H    11.57216  -18.01457   -5.77672
       O    12.10484  -17.80435   -5.05461
      H1    12.85748  -17.30142   -5.51909
       H    13.41272  -15.33118   -6.24156
       O    14.16347  -15.88573   -6.49196
      H1    14.18966  -15.86674   -7.44381
       H    16.19333  -14.60045   -2.55941
       O    16.18573  -13.62599   -2.56235
      H1    15.41925  -13.36497   -3.08516
       H    11.12173  -19.00022   -2.04100
       O    10.73602  -18.41718   -2.72082
      H1    11.41456  -18.35877   -3.40021
       H    11.90835  -13.99992   -4.67135
       O    11.80089  -14.08877   -5.66528
      H1    11.65455  -13.18978   -5.90883
       H    11.35800  -16.76438    0.87639
       O    10.48425  -16.41350    1.02454
      H1    10.48224  -16.54204    1.95508
       H    13.04869  -18.24142    1.11328
       O    12.93553  -17.62540    0.41643
      H1    13.82148  -17.46548   -0.01714
       H    18.16962  -15.32833    1.34985
       O    17.29816  -15.02506    1.03472
      H1    16.75141  -14.89339    1.77491
       H    16.45543  -16.61611    0.33022
       O    15.94608  -17.40692    0.40475
      H1    16.17005  -18.02056   -0.33010
       H    13.65291  -17.96612    3.43772
       O    14.07470  -17.24617    4.02462
      H1    14.23779  -16.50711    3.43231
       H    17.04113  -16.58481   -3.59477
       O    16.72783  -16.48804   -2.67892
      H1    15.84185  -16.90759   -2.64172
       H    17.99204  -17.99076   -1.67526
       O    18.81910  -17.82432   -1.19724
      H1    19.37601  -18.57964   -1.34016
       H    12.64965  -11.99803   -2.68089
       O    11.79578  -11.59370   -2.26651
      H1    11.52302  -12.42884   -1.82837

