69
frame 7 | Written by MDAnalysis XYZWriter (release 2.4.3)
       H    -6.15090  -16.67104   10.08300
       O    -5.80917  -16.23383    9.31791
      H1    -5.25420  -16.98861    8.97176
       H    -0.50657  -16.39718    2.55356
       O     0.44237  -16.68855    2.36351
      H1     0.95501  -15.82485    2.30492
       H    -7.48446  -16.01385    6.10737
       O    -6.73278  -16.20029    5.56445
      H1    -7.13088  -16.55331    4.74012
       H   -10.45416  -18.85998    5.85293
       O    -9.64328  -18.73012    5.35162
      H1    -9.19392  -19.56042    5.16250
       H    -1.95514  -16.85337    7.56640
       O    -1.90909  -16.18075    6.85071
      H1    -2.16995  -16.59803    6.02132
       H    -4.13705  -15.68190   10.43110
       O    -3.71127  -15.71862   11.24478
      H1    -2.88380  -16.22925   11.20411
       H    -0.82662  -18.79142    9.28643
       O    -1.53086  -18.08479    9.36201
      H1    -1.02211  -17.44758    9.89014
       H    -7.54940  -17.33953    2.60710
       O    -6.74828  -17.06848    2.98441
      H1    -6.53158  -16.30548    2.45238
       H    -8.55726  -17.84531   10.69153
       O    -9.28188  -18.28934   10.26278
      H1    -8.96955  -18.49654    9.34160
       H    -2.32914  -17.10450    3.97398
       O    -2.50613  -17.80644    4.60182
      H1    -1.72531  -18.32487    4.58089
       H    -4.54951  -18.95870    7.69950
       O    -4.37411  -18.47876    8.55359
      H1    -3.43343  -18.42567    8.76576
       H     3.45102  -16.25662    5.63609
       O     3.33043  -17.06306    6.18977
      H1     2.37236  -17.05862    6.38866
       H    -4.19311  -15.36220    6.46709
       O    -4.00965  -14.50733    6.05191
      H1    -4.76002  -14.47753    5.44002
       H    -6.96560  -12.75180    4.87677
       O    -6.39585  -13.49681    4.56949
      H1    -6.68677  -14.23150    5.13534
       H    -8.62296  -18.37860    7.04753
       O    -7.98236  -18.52288    7.77078
      H1    -7.39954  -17.80468    7.97556
       H    -2.39771  -15.78501    1.86396
       O    -2.25218  -15.76510    2.79769
      H1    -1.90913  -14.91720    3.10040
       H    -0.22424  -16.19742    6.56051
       O     0.70407  -16.09611    6.33418
      H1     0.99414  -15.21564    6.11764
       H    -3.67866  -18.92002    3.48532
       O    -4.36446  -19.28484    2.96178
      H1    -4.99344  -18.54875    2.90164
       H    -6.74118  -17.26478   12.24024
       O    -6.97438  -17.80044   11.42871
      H1    -7.26277  -18.59642   11.83845
       H    -8.44138  -14.78622    8.12861
       O    -7.54675  -14.74558    7.80540
      H1    -7.03543  -15.33926    8.35040
       H     0.37687  -17.56012    5.17926
       O     0.22411  -18.30972    4.63272
      H1     0.61527  -18.01371    3.82942
       H    -1.62515  -12.84678    4.84237
       O    -1.59840  -13.82989    4.68498
      H1    -2.03736  -14.16882    5.51097
       H    -4.22489  -18.68037    5.77367
       O    -4.26930  -19.55210    6.11959
      H1    -3.35414  -19.77138    6.20755

