69
frame 8 | Written by MDAnalysis XYZWriter (release 2.4.3)
       H   -13.48002  -13.61429  -17.70376
       O   -13.88285  -13.20202  -18.45661
      H1   -14.49712  -12.57805  -18.06671
       H   -17.41985  -15.23574  -10.41940
       O   -17.11701  -15.97208  -10.95982
      H1   -16.71480  -16.50573  -10.25295
       H   -16.26680   -6.50384  -13.98641
       O   -17.08105   -6.83992  -14.39138
      H1   -17.76329   -6.79546  -13.70998
       H   -12.93140   -9.55246  -14.07008
       O   -13.47519   -8.91019  -13.56151
      H1   -14.20847   -9.46583  -13.23623
       H   -17.62490  -13.69594  -17.57191
       O   -17.28051  -14.54178  -17.23946
      H1   -16.40352  -14.32082  -16.84746
       H   -14.27848  -11.07900  -16.32367
       O   -15.10061  -11.57145  -16.50345
      H1   -15.77265  -10.87486  -16.25776
       H   -16.38814  -10.28947  -18.25934
       O   -16.25454   -9.40714  -18.71173
      H1   -16.39050   -8.80449  -18.00538
       H   -16.44623  -14.41868  -11.88657
       O   -16.31053  -13.67800  -12.46584
      H1   -15.37417  -13.52516  -12.57740
       H   -14.88984  -12.86464  -15.33819
       O   -14.87544  -13.83135  -15.05479
      H1   -14.41886  -13.78724  -14.20212
       H   -20.16438  -13.32866  -15.94257
       O   -19.46706  -13.90981  -15.52360
      H1   -18.81093  -14.18546  -16.18390
       H   -18.41867  -11.94138  -18.89363
       O   -18.15555  -12.06044  -17.98274
      H1   -18.90955  -11.67409  -17.51926
       H   -15.93688  -10.95779  -11.72399
       O   -15.85298  -10.21475  -12.26396
      H1   -15.78168   -9.52202  -11.66161
       H   -19.50025   -7.75893  -12.38252
       O   -19.19701   -6.87373  -12.16118
      H1   -19.96754   -6.38496  -12.57807
       H   -18.61056  -12.92096   -9.65407
       O   -18.64285  -13.80704  -10.06313
      H1   -19.09343  -14.42845   -9.38652
       H   -12.89526  -13.06341  -13.05824
       O   -13.57040  -13.73432  -12.74843
      H1   -13.28629  -14.62121  -13.00794
       H   -17.64869  -16.02425  -12.59028
       O   -17.87421  -16.07450  -13.56406
      H1   -17.93902  -15.14598  -13.86444
       H   -18.61668  -12.71878  -14.40268
       O   -18.23682  -11.95917  -13.85659
      H1   -17.54105  -12.38095  -13.35403
       H   -20.12698  -16.82475  -10.51735
       O   -19.38792  -17.31970  -10.06992
      H1   -18.52185  -16.95129  -10.28682
       H   -17.58443  -10.46282  -15.04083
       O   -17.11351   -9.86764  -15.59660
      H1   -17.14917   -9.04056  -15.11192
       H   -19.82887  -10.91204   -8.11956
       O   -19.15804  -11.56173   -8.30621
      H1   -18.63475  -11.60734   -7.49889
       H   -18.76381  -18.35592  -15.62748
       O   -18.36048  -17.53074  -15.93858
      H1   -18.18460  -16.93477  -15.20358
       H   -15.48769  -18.53907  -14.62545
       O   -15.35082  -17.75402  -14.11447
      H1   -16.24479  -17.45832  -13.96917
       H   -13.86112  -14.04123  -10.59054
       O   -14.22330  -13.93191   -9.70320
      H1   -13.89167  -14.67364   -9.20830

