69
frame 9 | Written by MDAnalysis XYZWriter (release 2.4.3)
       H    18.00781  -13.72302   -6.63957
       O    17.97596  -14.03463   -7.54973
      H1    17.56530  -13.34810   -8.07786
       H    19.10790  -15.64277   -8.32503
       O    19.65332  -16.43066   -8.20029
      H1    20.11922  -16.42413   -9.04256
       H    19.47378  -17.48769   -2.68268
       O    19.16538  -16.92822   -3.40909
      H1    18.20247  -17.06509   -3.50455
       H    19.10298  -10.12133   -7.57915
       O    18.16503  -10.21072   -7.72484
      H1    17.76403  -10.24749   -6.86172
       H    17.32394  -12.26968   -3.80746
       O    16.54407  -11.81661   -3.40259
      H1    16.43865  -10.98836   -3.87927
       H    15.66286  -17.33363   -7.11022
       O    15.74587  -17.87513   -6.30769
      H1    16.42074  -18.47351   -6.59612
       H    14.60168  -12.78554   -8.86718
       O    14.88322  -12.31171   -8.10637
      H1    15.78460  -12.02096   -8.51224
       H    13.44081  -10.91304  -10.90594
       O    14.15973  -11.35170  -11.41642
      H1    14.24012  -12.19658  -10.97970
       H    13.61490  -15.33708   -7.54184
       O    12.90570  -15.61958   -8.09949
      H1    12.25107  -15.91050   -7.46908
       H    15.56364  -15.67989   -2.87298
       O    15.04187  -15.17898   -2.29255
      H1    14.27208  -15.63462   -1.99609
       H    14.52829  -10.51015   -8.26047
       O    14.83558   -9.56199   -8.31951
      H1    15.28664   -9.46437   -7.48074
       H    14.80245  -14.27914   -5.84003
       O    15.25074  -14.89226   -6.42216
      H1    15.96603  -14.44812   -6.82756
       H    13.25267  -14.39703   -9.28963
       O    13.42850  -13.77756  -10.01416
      H1    13.59480  -14.37320  -10.75937
       H    13.45622  -12.95752   -4.42938
       O    13.48035  -13.84662   -4.06011
      H1    14.33278  -13.87446   -3.57722
       H    15.08140  -17.13473  -10.07199
       O    15.64351  -16.67996   -9.42902
      H1    16.20880  -17.37520   -9.05510
       H    19.34813  -11.85879   -5.31859
       O    18.85342  -12.64002   -4.96493
      H1    19.60089  -13.25364   -4.73209
       H    18.75514  -10.02778  -11.23581
       O    18.35696   -9.14294  -11.15851
      H1    17.48587   -9.12275  -11.53696
       H    17.66318  -11.18297   -9.07070
       O    17.14314  -11.99325   -9.43610
      H1    16.64016  -11.65142  -10.19016
       H    16.60788   -9.06099   -5.09631
       O    17.31131   -9.68170   -5.13206
      H1    18.14487   -9.15738   -5.12714
       H    16.22513  -14.52554  -12.57034
       O    15.55098  -13.85278  -12.72382
      H1    15.62407  -13.66978  -13.64717
       H    15.91346  -17.40264   -4.51708
       O    16.40200  -17.18023   -3.72874
      H1    16.07154  -17.68806   -2.97843
       H    16.81713  -11.86560  -13.20874
       O    17.53244  -11.16886  -13.17489
      H1    18.10363  -11.40310  -12.43818
       H    16.79155  -15.88851  -10.81602
       O    17.42716  -15.79987  -11.47707
      H1    17.24742  -16.53463  -12.10314

