69
frame 8 | Written by MDAnalysis XYZWriter (release 2.4.3)
       H    -1.62099  -10.27596  -13.55125
       O    -1.07764   -9.50113  -13.35092
      H1    -1.07014   -9.07583  -14.23497
       H     5.78349  -13.58951  -12.89172
       O     4.85259  -13.43039  -13.04591
      H1     4.80504  -12.51588  -13.37686
       H     3.82957  -11.26719  -15.27130
       O     3.68274  -11.42419  -16.19645
      H1     2.77468  -11.79759  -16.25156
       H     2.88362   -9.86229   -9.33943
       O     2.65762   -9.00623   -9.71868
      H1     3.37729   -8.45689   -9.34885
       H     2.74736   -9.38766  -16.01359
       O     3.03896   -8.47051  -15.99370
      H1     3.97061   -8.47927  -15.63541
       H     0.75393  -15.71884  -15.57271
       O     1.22812  -15.26364  -16.27323
      H1     2.06958  -14.99629  -15.91313
       H     3.03038  -11.67409   -7.60954
       O     2.86997  -11.53002   -8.56339
      H1     1.99889  -11.85396   -8.71939
       H    -1.82417  -14.08922   -9.57466
       O    -1.20275  -14.00783  -10.33875
      H1    -0.56344  -13.29941   -9.99763
       H     0.84257  -13.61298  -16.41030
       O     0.82123  -12.67722  -16.29719
      H1    -0.03742  -12.31492  -16.55874
       H     0.29260  -16.43515  -13.55025
       O    -0.37193  -15.76257  -13.71864
      H1     0.08883  -14.90395  -13.51558
       H    -0.55540   -6.26493  -12.13108
       O     0.40572   -6.14188  -12.22822
      H1     0.56650   -6.69775  -12.99214
       H     0.74643  -11.56053  -10.44041
       O     0.35173  -11.99209   -9.72287
      H1    -0.13843  -11.28231   -9.28727
       H     4.05810  -15.11752  -15.73321
       O     3.57975  -15.18259  -14.85349
      H1     4.09212  -14.59988  -14.22947
       H     4.54452  -10.23223  -12.88239
       O     4.13169  -10.84265  -13.54217
      H1     3.18007  -10.95107  -13.22239
       H    -3.24218  -12.36768  -12.80297
       O    -2.26540  -12.33723  -12.69592
      H1    -2.15591  -12.85145  -11.90198
       H     3.65282   -8.49417  -11.48736
       O     4.39079   -8.53526  -12.18601
      H1     5.15198   -8.08958  -11.74024
       H     2.49015  -14.35466   -9.85248
       O     1.84668  -14.95645   -9.45070
      H1     0.98983  -14.81553   -9.90987
       H     4.07446  -12.63413   -9.80422
       O     4.23409  -13.43083  -10.30473
      H1     4.25450  -13.32130  -11.28907
       H     1.61809   -7.67420  -15.49098
       O     0.88845   -7.25777  -15.01134
      H1     0.88340   -6.30312  -15.27565
       H     0.31941  -12.98401  -14.51101
       O     0.31146  -13.15963  -13.56172
      H1    -0.60583  -12.84092  -13.37521
       H    -2.10971   -7.25489  -10.95215
       O    -2.01999   -7.31325  -11.92159
      H1    -1.61581   -8.18007  -12.04898
       H    -1.20614   -8.91686  -16.75545
       O    -1.34688   -8.39723  -15.95460
      H1    -0.57306   -7.85901  -15.83460
       H     0.87416  -11.63021  -12.85964
       O     1.17390  -10.84430  -12.30576
      H1     0.67017  -10.04950  -12.61836

