69
frame 8 | Written by MDAnalysis XYZWriter (release 2.4.3)
       H   -13.22645   17.85797   -0.73354
       O   -13.31051   18.75119   -0.35140
      H1   -12.51394   19.27148   -0.50473
       H   -11.92009   16.57018   -2.23531
       O   -12.59041   16.45755   -1.54032
      H1   -12.26493   15.74455   -0.97143
       H   -14.67282   12.75938   -9.87211
       O   -14.49421   13.15084   -8.94431
      H1   -15.38799   13.49699   -8.72127
       H   -15.52327   15.47608  -11.88832
       O   -16.33253   15.86439  -12.25266
      H1   -16.46216   16.75187  -11.93051
       H   -13.75644   15.42097   -2.41017
       O   -14.55520   14.99947   -2.78859
      H1   -15.10500   15.75847   -2.94128
       H   -16.33225   18.72434   -6.19841
       O   -16.13089   19.63705   -5.91563
      H1   -16.90909   20.18190   -6.30221
       H   -13.84017   14.37556   -4.63343
       O   -14.15163   14.01934   -5.46256
      H1   -13.46473   14.15789   -6.11306
       H   -10.98691   15.61927   -3.76065
       O   -11.23911   16.58610   -3.87947
      H1   -10.45380   17.12719   -3.60885
       H   -16.50918   17.81890   -3.07683
       O   -16.87333   17.03181   -3.47350
      H1   -17.65506   17.27342   -3.95771
       H   -15.23503   15.33227   -1.22670
       O   -15.51414   15.31773   -0.33441
      H1   -16.41084   15.53067   -0.38546
       H   -16.17725   18.28164   -0.38458
       O   -16.09226   18.72800   -1.19635
      H1   -15.19764   18.96217   -1.29978
       H    -9.02765   16.60716   -7.37401
       O    -9.76819   16.77006   -7.99809
      H1   -10.54234   17.04570   -7.41332
       H   -17.68310   14.32058   -9.41985
       O   -17.25719   13.79160   -8.76377
      H1   -17.44561   14.12626   -7.80003
       H   -13.34298   18.04136  -10.16087
       O   -13.63025   17.17664  -10.45595
      H1   -12.85328   16.57757  -10.65815
       H   -16.00655   19.01315  -11.67830
       O   -16.83613   18.52139  -11.52182
      H1   -17.62648   18.97401  -11.81406
       H   -12.90752   17.36564   -6.58115
       O   -11.97270   17.43887   -6.40613
      H1   -11.77475   17.00276   -5.55557
       H   -19.07271   17.00962   -5.41694
       O   -18.34252   17.00715   -6.06954
      H1   -17.86304   16.21520   -5.89011
       H   -16.58628   18.24104   -9.78785
       O   -16.60447   18.65289   -8.92546
      H1   -16.59439   19.64403   -9.13190
       H   -12.75244   13.71252   -8.25250
       O   -12.24093   14.04458   -7.48360
      H1   -11.90021   14.91561   -7.71313
       H   -18.33098   17.99551   -8.72774
       O   -19.26461   17.72005   -8.52880
      H1   -19.21221   17.42211   -7.58195
       H   -14.99480   17.54821   -7.97896
       O   -14.32423   16.97473   -7.55750
      H1   -13.96100   16.47845   -8.24441
       H   -17.76740   16.35236   -2.16786
       O   -18.19691   15.86125   -1.42228
      H1   -18.39421   16.56993   -0.79991
       H   -16.05354   14.41329   -5.93988
       O   -16.98721   14.40837   -6.00494
      H1   -17.25409   13.57840   -5.47917

