69
frame 0 | Written by MDAnalysis XYZWriter (release 2.4.3)
       H    16.63169    8.89924   -6.54252
       O    15.92452    9.33040   -7.02015
      H1    15.61573   10.04942   -6.43879
       H    19.53164    5.29914  -10.66819
       O    18.90454    6.01078  -10.50802
      H1    18.23467    5.95446  -11.19839
       H    14.25591   10.99958  -10.69787
       O    14.28701   11.91301  -11.02368
      H1    13.65238   12.39969  -10.50580
       H    16.09328   12.53208  -11.36247
       O    16.99538   12.87510  -11.42597
      H1    17.38076   12.91929  -10.54958
       H    14.60277    9.50427   -8.49874
       O    14.44540    9.65948   -9.43928
      H1    13.73577    9.07544   -9.69460
       H    15.26269   12.24488   -8.99669
       O    15.64688   12.46048   -8.14197
      H1    15.58375   13.39501   -8.17375
       H    18.96903    9.88504   -9.13955
       O    19.37307    9.45895   -9.86076
      H1    18.71726    9.46863  -10.56026
       H    11.97270    9.95258  -11.42835
       O    11.18031   10.32988  -11.03919
      H1    10.59720    9.60057  -11.03016
       H    18.62915   11.39408   -7.55237
       O    18.16824   11.41955   -8.39562
      H1    17.26366   11.70949   -8.20483
       H    14.15311   11.78602  -14.01724
       O    13.66491   12.47669  -13.54924
      H1    13.76561   12.21619  -12.67496
       H    17.02652    3.46945  -11.39905
       O    16.20857    3.75527  -10.89454
      H1    16.06544    4.70153  -11.07663
       H    13.11731    7.87079  -11.95547
       O    13.54217    8.72444  -12.11740
      H1    14.39797    8.54740  -12.58703
       H    10.94188    6.72102  -10.97172
       O    11.87850    6.54715  -11.23390
      H1    12.23968    6.61451  -10.33628
       H    17.35806    8.30791   -9.89461
       O    16.74781    8.71802  -10.56647
      H1    15.97068    9.08630   -9.98030
       H    13.53315   11.54197   -6.52208
       O    12.85050   10.86127   -6.39234
      H1    12.26050   10.96432   -7.18983
       H    18.86460    7.37444   -7.01975
       O    18.32886    7.85888   -6.37253
      H1    18.77710    7.56370   -5.56744
       H    16.18113    4.25828   -7.91562
       O    16.64794    4.84621   -8.47756
      H1    16.55971    4.40834   -9.32941
       H    19.38360   11.07934  -12.41157
       O    18.49644   11.04649  -12.87660
      H1    17.95250   11.61701  -12.35322
       H    16.39741    7.21457  -11.77964
       O    16.35575    6.26024  -11.92817
      H1    16.62679    6.11522  -12.86368
       H    12.36329    7.59537   -7.83898
       O    12.78960    7.32529   -8.63698
      H1    13.60185    6.89505   -8.40457
       H    18.43339    8.70798  -15.43497
       O    18.87363    8.46417  -14.56309
      H1    18.60474    9.13442  -13.97042
       H    16.54801    9.18931  -12.53848
       O    15.89349    9.07191  -13.25944
      H1    15.89861    9.78728  -13.92311
       H    15.20456    7.50922   -7.19375
       O    14.90135    6.56784   -7.17384
      H1    15.62492    5.95509   -7.53090

