69
frame 9 | Written by MDAnalysis XYZWriter (release 2.4.3)
       H     1.03343   14.12891   -2.22699
       O     0.58022   13.35439   -2.65029
      H1    -0.32356   13.62965   -2.74917
       H     7.23531   10.81986   -1.86901
       O     6.43466   10.29271   -2.03293
      H1     5.96284   10.63963   -2.80853
       H     4.98320   13.00714    0.58093
       O     4.77587   12.08322    0.42106
      H1     5.33041   11.87156   -0.36541
       H     7.16447    9.30297    1.39736
       O     7.33456    8.32952    1.36133
      H1     7.95967    8.11023    0.68630
       H     2.09862   16.16736   -1.44095
       O     1.80254   15.27416   -1.24306
      H1     1.19783   15.34721   -0.54206
       H     5.35614   14.65135    2.64623
       O     5.00783   15.49721    2.23931
      H1     4.23763   15.67176    2.77420
       H     3.47545    8.45159   -0.99787
       O     2.75694    8.31876   -1.60676
      H1     2.68542    7.35711   -1.54220
       H     0.67242   12.36989    0.28936
       O     1.51408   11.96311    0.15235
      H1     1.73535   11.96546   -0.81021
       H     5.64396    8.12014    0.91855
       O     4.78754    7.97698    0.49416
      H1     4.15600    7.93379    1.21012
       H     3.53513    8.28565    3.10384
       O     2.89372    8.36742    2.38896
      H1     2.75564    9.35208    2.21232
       H     7.36600   15.06311   -2.34516
       O     7.79639   15.25259   -3.14648
      H1     7.67099   16.23078   -3.24920
       H     6.30428   10.13196    3.67514
       O     6.62241    9.66893    4.49209
      H1     5.76133    9.22500    4.70251
       H     9.60563   11.12101   -2.00239
       O     9.11142   10.96832   -1.14602
      H1     9.21457    9.97948   -1.06647
       H    -0.69199    9.67846    0.36820
       O    -0.28054   10.02509   -0.45562
      H1     0.41625   10.65483   -0.18384
       H     2.51693   11.62230    3.29546
       O     3.15708   11.28529    2.67117
      H1     2.72765   11.63957    1.84505
       H     5.44998   12.68442    5.11906
       O     5.43929   12.88863    6.06555
      H1     5.99091   12.40788    6.62309
       H     3.37438   14.56710   -2.13763
       O     3.92655   13.93641   -2.63215
      H1     3.87042   14.15835   -3.55448
       H     7.31934    8.84667   -2.39563
       O     7.80866    8.00348   -2.56668
      H1     7.69270    7.79641   -3.49785
       H     7.39247   11.28790    1.57761
       O     6.59229   10.92153    1.96484
      H1     5.84671   11.11882    1.30234
       H     3.65827   11.28401   -1.10962
       O     3.11292   11.52429   -1.89750
      H1     3.58557   12.26206   -2.27592
       H     5.65851   15.28143    0.02879
       O     6.02681   14.49931   -0.38075
      H1     6.95751   14.68534   -0.16588
       H     8.70926   13.06390    3.57415
       O     8.44774   13.20571    2.61867
      H1     9.25473   12.83457    2.21506
       H     6.20897   12.65480    2.86441
       O     5.45603   13.05620    3.23679
      H1     4.61230   12.66078    2.83289

