69
frame 9 | Written by MDAnalysis XYZWriter (release 2.4.3)
       H    17.61922   -1.96414   12.84133
       O    16.87890   -1.79911   13.44229
      H1    17.21949   -1.29521   14.16324
       H    12.16042   -6.51213    9.53566
       O    11.27795   -6.40525    9.85866
      H1    11.26386   -5.91052   10.69569
       H    18.74054   -3.67777   11.50907
       O    18.94810   -2.76204   11.59206
      H1    19.90805   -2.70797   11.74694
       H    14.46071   -7.02216   10.05888
       O    14.29896   -7.65934    9.34503
      H1    14.77492   -7.27793    8.57732
       H    16.07369   -1.19847   11.28853
       O    16.65101   -1.29235   10.56376
      H1    16.19131   -1.96969    9.99247
       H    11.84165   -7.24018   14.39725
       O    12.32695   -7.33622   13.52090
      H1    12.21596   -8.22098   13.19949
       H    12.72641   -1.87417   13.21584
       O    12.66903   -0.94079   13.25908
      H1    11.71028   -0.81671   13.07702
       H    14.95173   -7.45618   15.22598
       O    15.08880   -6.89166   14.45588
      H1    14.20865   -6.96770   14.03444
       H    15.52914   -4.41184    8.22431
       O    16.19530   -4.09828    8.83300
      H1    16.41939   -4.86943    9.34063
       H    13.56152   -4.74800    7.53448
       O    14.29741   -5.22685    7.17086
      H1    14.64267   -4.76326    6.40759
       H    18.74597   -4.37804   14.76339
       O    18.02900   -4.32424   14.05301
      H1    17.68892   -3.40645   14.01786
       H    14.90059   -5.86602   12.60261
       O    15.01260   -5.63926   11.67813
      H1    14.72263   -4.72646   11.58316
       H    14.68503  -10.14073   13.29710
       O    14.62286  -10.01367   12.28970
      H1    15.41791   -9.53298   12.02046
       H    12.35751   -1.80246   10.99100
       O    12.34558   -1.33276   10.06267
      H1    11.36329   -1.32373    9.83406
       H    18.19445   -7.92240   13.97978
       O    17.43732   -8.36609   14.38027
      H1    16.65314   -7.85724   14.14498
       H    15.77042   -5.68216   15.61693
       O    16.27717   -5.05387   16.19450
      H1    17.01604   -4.89015   15.62725
       H    18.09974   -5.97023   11.82474
       O    17.53410   -5.47699   11.18534
      H1    16.63557   -5.67113   11.43144
       H    18.95942   -5.67801   13.54777
       O    19.28069   -6.54328   13.24737
      H1    20.20549   -6.60972   13.55895
       H    14.32120   -3.48819   15.23899
       O    14.51496   -3.30049   14.30272
      H1    15.40559   -2.89914   14.18489
       H    12.16421   -4.10917   12.12469
       O    12.90719   -3.49647   11.93520
      H1    13.49421   -3.53925   12.62829
       H    16.67911   -9.96482   10.55353
       O    16.65955   -9.01640   10.59980
      H1    15.90703   -8.75004   10.03982
       H    19.09891   -8.29988    8.57295
       O    18.94572   -7.86130    9.40054
      H1    18.12399   -8.22434    9.75768
       H     9.88340   -5.19992   12.12925
       O    10.82670   -5.28510   12.19701
      H1    10.95914   -6.01672   12.78185

