69
frame 9 | Written by MDAnalysis XYZWriter (release 2.4.3)
       H    17.61922   -1.96414   12.84133
       O    16.87890   -1.79911   13.44229
      H1    17.21949   -1.29521   14.16324
       H    13.24132    5.24002   15.63886
       O    13.01682    4.55939   16.23282
      H1    12.66434    3.91324   15.64430
       H    16.24038   -1.65381   18.32142
       O    16.47230   -0.76805   17.96775
      H1    15.59399   -0.36934   18.16896
       H    18.49591    0.13334   15.66946
       O    17.66454   -0.38594   15.62438
      H1    17.43228   -0.57079   16.56253
       H    11.03340    3.16798   14.02487
       O    11.70290    2.66076   14.53243
      H1    12.42764    2.50274   13.97579
       H    14.46695    1.98533   13.30378
       O    13.79313    2.58114   12.90429
      H1    13.45851    2.16170   12.10898
       H    16.07369   -1.19847   11.28853
       O    16.65101   -1.29235   10.56376
      H1    16.19131   -1.96969    9.99247
       H    17.37987    3.24962   14.03826
       O    17.57693    3.86141   14.76208
      H1    16.92062    3.64136   15.44189
       H    12.72641   -1.87417   13.21584
       O    12.66903   -0.94079   13.25908
      H1    11.71028   -0.81671   13.07702
       H    15.92156    0.25296   14.20463
       O    15.02670    0.34900   14.52849
      H1    14.53535   -0.10303   13.82343
       H    16.27163    1.64853    9.93592
       O    15.59688    2.32336   10.09630
      H1    14.70008    1.98697    9.84918
       H    17.87130    0.09762   10.33489
       O    18.26248    0.98988   10.24636
      H1    19.24596    0.97427   10.44825
       H    18.74597   -4.37804   14.76339
       O    18.02900   -4.32424   14.05301
      H1    17.68892   -3.40645   14.01786
       H    10.53963   -0.94698   16.67622
       O    11.31974   -1.47272   16.46739
      H1    11.19283   -1.43568   15.46223
       H    16.52471    2.32427   11.73038
       O    16.94478    2.15978   12.56786
      H1    17.54155    1.40462   12.30219
       H    12.35751   -1.80246   10.99100
       O    12.34558   -1.33276   10.06267
      H1    11.36329   -1.32373    9.83406
       H    12.63656    5.60889   12.81346
       O    13.18360    5.26868   12.12112
      H1    13.46943    4.43848   12.49898
       H    14.96369    2.00511   15.88267
       O    15.28617    2.91711   16.12190
      H1    14.53254    3.47865   16.22760
       H    13.04781   -0.44684   17.05702
       O    13.87921    0.00090   17.13833
      H1    14.28524   -0.26581   16.26973
       H    14.32120   -3.48819   15.23899
       O    14.51496   -3.30049   14.30272
      H1    15.40559   -2.89914   14.18489
       H    12.16421   -4.10917   12.12469
       O    12.90719   -3.49647   11.93520
      H1    13.49421   -3.53925   12.62829
       H    12.43170    2.23281    9.70380
       O    13.07302    1.52242    9.71508
      H1    12.69795    0.71539   10.06851
       H     9.26193    0.69975   15.19220
       O     9.99629    0.59988   14.59267
      H1    10.56204    1.37881   14.72965

