69
frame 9 | Written by MDAnalysis XYZWriter (release 2.4.3)
       H    -5.72035   15.71888   12.64480
       O    -6.03644   15.82020   13.55377
      H1    -6.68290   15.08362   13.69748
       H    -6.24820   13.29830    8.01420
       O    -6.13880   14.22594    7.78211
      H1    -7.05352   14.60293    7.84224
       H    -3.39677   15.66821    8.23087
       O    -2.85911   15.49371    8.99266
      H1    -2.33503   14.61610    8.79126
       H    -5.54510   12.52915   13.23109
       O    -6.25720   12.13590   12.70593
      H1    -5.99330   12.34672   11.78645
       H    -8.23113   17.52523   15.18495
       O    -9.18085   17.40204   14.97463
      H1    -9.49645   17.86159   14.16672
       H    -2.23544   16.20808   11.62944
       O    -1.49636   15.81401   11.23641
      H1    -1.82502   15.63042   10.37140
       H    -0.43698   14.44255   17.14332
       O    -0.98114   14.12853   16.48101
      H1    -1.73904   14.74339   16.56292
       H     0.50286   18.82821   13.42887
       O     0.15589   18.59534   14.31038
      H1     0.18593   17.61629   14.34464
       H    -0.40404   15.12782   14.97065
       O    -0.58135   15.84145   14.29449
      H1    -0.72582   15.28077   13.48937
       H     0.45627   15.45072   11.72982
       O     1.34208   15.19972   11.98095
      H1     1.27439   14.28938   12.32266
       H    -7.20201   15.12201   17.12177
       O    -6.70692   15.80956   17.56693
      H1    -6.42617   16.36977   16.82841
       H    -3.90439   16.92218   11.91919
       O    -3.41915   17.20800   12.73085
      H1    -3.29210   18.19036   12.70654
       H    -1.52616   19.05473   13.11414
       O    -2.27720   19.63616   12.81576
      H1    -2.36513   20.20717   13.60367
       H    -4.19568   15.74348   10.14567
       O    -4.96592   16.20705   10.63047
      H1    -5.08255   17.06937   10.20321
       H    -2.43784   18.28578   16.98716
       O    -2.69210   18.50745   16.06618
      H1    -3.12246   17.69010   15.77842
       H    -3.96704   13.43250   15.16959
       O    -4.46076   12.70513   14.84413
      H1    -5.08134   12.57859   15.58353
       H    -6.47548   17.22507   14.66661
       O    -6.52493   17.63388   15.55757
      H1    -6.11266   18.53853   15.54560
       H    -1.41895   17.83405    7.23914
       O    -1.83634   18.09544    8.08392
      H1    -2.24545   17.31787    8.48784
       H    -5.33078   13.80314    9.58149
       O    -5.45577   13.08437   10.15879
      H1    -5.69745   12.33755    9.55688
       H    -5.70850   19.32077    9.79036
       O    -6.25547   18.51801    9.73293
      H1    -6.58954   18.41181    8.84595
       H    -7.04024   16.09348   10.53821
       O    -7.94348   16.00621   10.24135
      H1    -8.55724   15.88101   10.99805
       H    -5.04300   16.31211    6.05020
       O    -4.51637   15.98278    6.81001
      H1    -5.19024   15.37424    7.23315
       H    -2.90303   16.09346   14.51780
       O    -3.56081   15.92726   15.19635
      H1    -4.36373   15.90757   14.65353

