69
frame 9 | Written by MDAnalysis XYZWriter (release 2.4.3)
       H   -16.26019  -18.86977   15.90432
       O   -16.12814  -18.57297   15.01127
      H1   -16.44285  -19.28995   14.43884
       H   -12.08867  -13.29661   13.30271
       O   -12.28053  -14.12771   12.79252
      H1   -13.22778  -14.28473   12.89408
       H   -16.11097  -14.87425   18.74294
       O   -16.32777  -14.52540   17.86672
      H1   -15.49293  -14.02385   17.65565
       H   -11.81615  -16.06316   19.76474
       O   -11.56538  -15.68481   18.90836
      H1   -10.99238  -14.91409   19.09794
       H   -15.86216  -18.21708   11.37111
       O   -16.47983  -17.67651   11.82741
      H1   -16.14074  -17.61538   12.73208
       H   -13.82339  -12.49735   18.32619
       O   -14.13826  -12.70478   17.42418
      H1   -13.54121  -13.35456   16.95916
       H   -13.48380  -19.62961   18.73386
       O   -14.00202  -18.85732   18.69847
      H1   -13.62740  -18.33840   18.04453
       H   -12.42710  -15.28420   15.96853
       O   -13.03729  -15.11366   16.68755
      H1   -12.48533  -15.22754   17.46915
       H   -18.03382  -17.91596   19.84035
       O   -18.49076  -18.41752   19.14052
      H1   -18.27142  -17.97845   18.26579
       H   -11.74252  -17.10381   11.47588
       O   -11.55802  -17.81511   12.06487
      H1   -11.54827  -17.36729   12.90455
       H   -15.49195  -14.35441   12.42272
       O   -14.99343  -13.82018   13.03243
      H1   -15.33383  -14.07028   13.89959
       H   -13.52235  -17.47251    8.29469
       O   -13.91157  -17.03439    9.11150
      H1   -14.48988  -17.72959    9.46527
       H   -16.93744  -19.38053   18.21709
       O   -16.20028  -19.75164   17.65145
      H1   -15.34412  -19.43837   17.89263
       H   -11.45140  -15.51905   13.52812
       O   -11.39320  -16.19935   14.22621
      H1   -10.36823  -16.33991   14.28056
       H   -19.10402  -18.85972   15.22894
       O   -18.73127  -18.10258   14.70426
      H1   -17.83170  -18.04632   14.98037
       H   -10.69361  -17.03538   17.95560
       O   -10.30852  -17.72307   17.33329
      H1    -9.58678  -17.24669   16.89518
       H   -13.39989  -17.21416   16.00611
       O   -12.86758  -18.00905   16.22425
      H1   -12.00401  -17.73038   16.40040
       H   -17.24185  -16.00287   17.49762
       O   -17.83224  -16.67500   17.15123
      H1   -18.55393  -16.18560   16.70494
       H   -19.59040  -16.31626   12.06165
       O   -19.96492  -17.16102   12.28696
      H1   -19.53692  -17.54571   13.06040
       H   -17.16950  -11.49473   18.32644
       O   -17.92651  -12.09195   18.24258
      H1   -17.52882  -12.93113   17.95002
       H   -12.93785  -19.20020   14.40177
       O   -12.78573  -19.58365   13.52376
      H1   -12.35685  -18.82234   12.98837
       H   -17.22660  -14.68361   11.19357
       O   -16.35017  -14.95235   11.00289
      H1   -16.44250  -15.94257   10.95668
       H   -14.80996  -15.93589   15.65568
       O   -15.08396  -16.16066   14.75743
      H1   -15.58876  -16.96892   14.89355

