69
frame 9 | Written by MDAnalysis XYZWriter (release 2.4.3)
       H   -17.17060   -0.18091  -10.22340
       O   -16.23899   -0.29118  -10.48962
      H1   -15.70944    0.23558   -9.90501
       H   -19.15194   -2.61585  -12.18964
       O   -19.40277   -2.87780  -13.08835
      H1   -19.82034   -3.74892  -13.10214
       H   -17.38869   -1.59977  -14.12306
       O   -16.80389   -1.00454  -13.65978
      H1   -16.33499   -1.64377  -13.14161
       H   -15.67685   -1.95208  -11.46611
       O   -15.16549   -2.69776  -11.82308
      H1   -15.74527   -3.24346  -12.42395
       H   -15.21422   -1.85833  -16.16618
       O   -14.55886   -1.12940  -16.13115
      H1   -14.81682   -0.61214  -15.36892
       H   -17.42579   -8.58612  -14.32990
       O   -18.11367   -7.92779  -14.21593
      H1   -18.05428   -7.57820  -13.29400
       H   -17.62162   -3.97349  -13.60521
       O   -16.74138   -4.22804  -13.86063
      H1   -16.68680   -5.09088  -13.36600
       H   -17.96552   -1.46996  -16.18405
       O   -18.78948   -1.40129  -15.60264
      H1   -18.97109   -2.31701  -15.26736
       H   -20.23148   -2.99457  -10.56587
       O   -19.27713   -2.89867  -10.39796
      H1   -18.89985   -3.75314  -10.08591
       H   -15.77684   -3.37117   -8.85689
       O   -15.26195   -4.03597   -9.35669
      H1   -15.20818   -3.55754  -10.20595
       H   -15.90388   -2.80904   -6.41146
       O   -16.10098   -2.37029   -7.22793
      H1   -15.73674   -1.44522   -7.09887
       H   -18.54521   -6.99318  -15.55740
       O   -18.89717   -6.46877  -16.27814
      H1   -19.60545   -6.96267  -16.71137
       H   -18.21714   -5.78383  -10.89890
       O   -17.89214   -5.09692  -10.26875
      H1   -17.05235   -4.84596  -10.59507
       H   -20.11196    0.41864  -10.35933
       O   -19.43147    0.17682   -9.69691
      H1   -19.39506   -0.78234   -9.79143
       H   -19.44814   -2.51659   -7.09421
       O   -18.85557   -2.30432   -6.31172
      H1   -17.92773   -2.23729   -6.70332
       H   -19.89135   -7.53748  -11.43679
       O   -19.23581   -6.91171  -11.78123
      H1   -19.73479   -6.52084  -12.52026
       H   -17.96361    1.99400  -12.31632
       O   -18.14793    1.49491  -13.15652
      H1   -17.75104    0.59271  -13.27400
       H   -19.00946    2.10463   -8.80814
       O   -19.02740    3.06399   -8.99928
      H1   -19.84836    3.33381   -9.43007
       H   -18.43736   -7.90738   -9.64105
       O   -18.58690   -7.77481   -8.67520
      H1   -18.05673   -7.04889   -8.31981
       H   -17.02390   -3.66315  -16.98965
       O   -16.33901   -3.19992  -16.40824
      H1   -16.33120   -3.78531  -15.64461
       H   -19.34342   -3.71715  -18.03847
       O   -18.89518   -4.57423  -18.35789
      H1   -18.80548   -5.21821  -17.63379
       H   -16.93660    1.67506  -14.52754
       O   -16.30886    1.64131  -15.26405
      H1   -16.18434    2.58948  -15.53770
       H   -15.21579   -7.32778  -13.15846
       O   -15.66195   -6.83255  -12.44577
      H1   -15.56126   -7.33703  -11.60188

