69
frame 9 | Written by MDAnalysis XYZWriter (release 2.4.3)
       H    -6.29973  -15.27444    6.35949
       O    -5.76642  -15.78455    5.65858
      H1    -6.31727  -16.25634    5.08999
       H   -10.73236  -18.16688    6.38339
       O    -9.83085  -18.28165    6.05467
      H1    -9.64960  -19.24643    6.09740
       H    -9.10485  -18.67254    2.70484
       O    -8.72827  -19.39344    3.20136
      H1    -9.20101  -19.42534    4.07322
       H   -11.57653  -14.48311    2.17173
       O   -11.34385  -13.64833    1.72204
      H1   -10.41547  -13.46182    1.91466
       H   -15.95017  -18.56585    1.01373
       O   -15.52966  -17.72131    0.91810
      H1   -15.08343  -17.58613    1.71806
       H   -11.00390  -19.49775   -0.02285
       O   -11.61145  -19.11584   -0.60737
      H1   -11.69936  -18.19667   -0.31665
       H   -15.06399  -17.48518    4.12748
       O   -14.35487  -17.85938    3.60032
      H1   -14.27614  -18.82983    3.74887
       H   -13.45505  -18.84887    6.55814
       O   -12.76514  -18.19234    6.40884
      H1   -13.12197  -17.62068    5.77252
       H   -13.34287  -13.44494    1.58176
       O   -14.25075  -13.13241    1.29352
      H1   -14.78015  -13.12606    2.08847
       H   -11.07695  -17.13752    1.91646
       O   -10.10897  -17.21527    2.10591
      H1    -9.72972  -16.73080    1.36459
       H   -10.52215  -16.07127    4.24028
       O   -11.13720  -15.63078    4.83075
      H1   -10.67102  -15.80941    5.66965
       H    -7.38405  -17.98569    3.51371
       O    -6.56784  -17.44124    3.46484
      H1    -6.58852  -16.91299    2.67924
       H    -6.86606  -14.18363    2.77601
       O    -6.16608  -14.02093    3.40133
      H1    -6.03555  -14.72774    4.01735
       H    -8.23974  -17.46715    7.17338
       O    -7.60181  -17.59942    7.90094
      H1    -6.97981  -16.84921    8.03790
       H    -3.91266  -17.97671    2.20608
       O    -4.38851  -18.75076    2.45527
      H1    -5.12836  -18.48425    2.99916
       H    -6.43515  -16.82103    0.52654
       O    -6.37807  -16.14895    1.25738
      H1    -7.07792  -15.51029    0.99683
       H    -7.72054  -12.78730    1.35013
       O    -8.01065  -13.72988    1.36519
      H1    -8.36678  -13.95472    0.49328
       H    -9.23373  -17.16381   -0.52974
       O    -9.51375  -16.30573   -0.32662
      H1    -9.79536  -16.07624   -1.22104
       H   -12.07935  -12.95525    6.71918
       O   -11.38643  -13.00773    6.01678
      H1   -11.69383  -13.61241    5.33267
       H    -6.49365  -18.93703   -0.23747
       O    -6.87069  -18.11684   -0.58062
      H1    -6.50788  -18.00774   -1.48422
       H   -11.60139  -15.94954   -1.92792
       O   -11.06929  -15.72972   -2.69389
      H1   -11.37780  -16.53308   -3.21719
       H   -13.22112  -16.75077    2.21559
       O   -12.80015  -15.87201    2.37193
      H1   -13.01725  -15.61093    3.29435
       H   -13.68355  -15.65173   -0.27621
       O   -13.38874  -16.56542   -0.51407
      H1   -14.03838  -17.03431   -0.07307

