69
frame 8 | Written by MDAnalysis XYZWriter (release 2.4.3)
       H    -7.76121    1.57997   11.28663
       O    -7.00808    1.09820   11.56825
      H1    -6.55517    1.71369   12.13991
       H   -12.04258    1.83727   12.56111
       O   -12.07970    0.90467   12.85576
      H1   -11.58834    0.92294   13.68355
       H   -13.15584   -2.12731   15.36579
       O   -12.87542   -1.43852   14.68288
      H1   -12.34238   -1.98819   14.10287
       H   -14.35639    2.40856   10.34842
       O   -13.57532    2.39898    9.85392
      H1   -13.34560    1.49563    9.72479
       H    -9.12067   -5.46305    7.81792
       O    -8.92019   -4.52048    7.63239
      H1    -8.76922   -4.53199    6.67152
       H    -7.15878   -3.53553   11.01663
       O    -7.32819   -4.04401   11.82305
      H1    -6.81718   -3.60863   12.52749
       H    -8.79355    3.25582   10.04038
       O    -9.15389    2.52211   10.60297
      H1    -9.98445    2.93753   10.93648
       H    -7.53426   -3.75325    8.99703
       O    -6.85220   -3.15400    9.33285
      H1    -5.98278   -3.62594    9.17541
       H   -10.21363   -3.17084    7.27884
       O   -10.76497   -2.49803    6.91470
      H1   -10.19593   -2.08160    6.27774
       H   -12.06892   -0.05409   11.42453
       O   -12.35649   -0.49194   10.57241
      H1   -13.26868   -0.63055   10.63412
       H    -9.95808    1.53531    6.71999
       O   -10.22439    0.65875    6.38552
      H1   -11.11533    0.38541    6.73826
       H   -11.80721   -1.05445    7.27630
       O   -12.55632   -0.49860    7.35867
      H1   -12.96014   -0.57911    6.45312
       H   -14.69237   -1.66084    9.07022
       O   -14.82655   -1.23555    9.92464
      H1   -15.35293   -1.90189   10.43991
       H    -5.42936   -2.26959   13.38627
       O    -6.12730   -2.69882   13.96794
      H1    -6.86420   -2.11065   13.88584
       H    -9.18541   -5.35497   12.20978
       O    -9.95379   -5.84476   12.46696
      H1   -10.48814   -5.14086   12.87985
       H   -11.90615   -3.98907   13.25331
       O   -11.21685   -3.44072   13.66057
      H1   -10.79980   -3.01082   12.89983
       H   -11.53789   -6.14272    8.52166
       O   -11.39187   -6.59305    9.40475
      H1   -11.10519   -5.88312    9.95367
       H    -8.54691   -0.74632    8.13038
       O    -7.74983   -1.13347    7.70917
      H1    -7.39783   -1.81749    8.26928
       H    -8.17602    0.15494   13.31078
       O    -8.20720   -0.13804   14.18973
      H1    -9.11545   -0.14288   14.53369
       H    -8.99726   -2.20485   11.69677
       O    -9.94669   -2.08701   11.42911
      H1    -9.95619   -1.63582   10.58513
       H   -10.51592   -0.09570    9.75857
       O    -9.57597    0.06062    9.52642
      H1    -9.43817    1.01583    9.83203
       H    -6.39727    1.38546    7.83514
       O    -6.21242    1.49879    8.79566
      H1    -6.98188    1.05779    9.26294
       H   -12.20591   -2.52830    9.92587
       O   -12.66543   -3.31925    9.64741
      H1   -12.55010   -3.40302    8.69014

