69
frame 9 | Written by MDAnalysis XYZWriter (release 2.4.3)
       H    17.33247  -11.00345  -17.08690
       O    18.31039  -11.06536  -17.25992
      H1    18.82007  -10.95807  -16.44146
       H     9.13700  -15.82188  -19.71123
       O     9.73257  -15.31979  -19.08554
      H1     9.97759  -14.50774  -19.52558
       H    15.15181  -12.69918  -15.96837
       O    14.73856  -13.48831  -15.56234
      H1    15.26376  -14.22246  -15.85982
       H    12.56790  -16.69377  -14.76706
       O    12.86980  -16.91627  -15.64641
      H1    13.56981  -17.52616  -15.71763
       H    18.43092  -13.31633  -16.58960
       O    18.73772  -13.77921  -15.79797
      H1    19.67880  -13.60820  -15.70289
       H    16.72261  -16.61666  -15.47986
       O    16.48553  -15.77784  -15.86324
      H1    17.34725  -15.34985  -15.93889
       H    12.39608   -9.47364  -16.67592
       O    13.21355   -8.90188  -16.68946
      H1    13.43636   -8.72327  -17.62953
       H    15.36554  -18.94890  -16.02562
       O    14.56432  -19.16787  -16.53448
      H1    14.79109  -19.40316  -17.44635
       H    10.28224  -12.98022  -17.02916
       O    11.23244  -12.95398  -16.87557
      H1    11.53794  -13.78809  -17.17318
       H    19.85557   -9.35151  -14.75566
       O    19.67041  -10.26962  -14.98756
      H1    18.87786  -10.44467  -14.47313
       H    12.29545  -17.44920  -19.49803
       O    11.43586  -17.57170  -19.09495
      H1    10.98875  -16.70818  -19.14425
       H    13.64051  -15.57793  -18.88239
       O    13.97977  -15.83288  -19.78805
      H1    14.78927  -15.36907  -19.92062
       H    16.74782  -16.94600  -17.55386
       O    17.34884  -17.46028  -18.08613
      H1    18.19476  -17.30919  -17.58820
       H    16.05927   -8.15360  -14.59999
       O    15.37084   -8.81400  -14.60010
      H1    14.94625   -8.69856  -15.45667
       H    11.64182  -13.27275  -14.94398
       O    12.30679  -13.42150  -14.24692
      H1    13.07684  -13.23584  -14.80592
       H    17.72241   -7.83776  -18.63736
       O    18.51643   -7.65040  -18.08036
      H1    19.08907   -8.36918  -18.44504
       H    16.09221  -13.72994  -19.37000
       O    15.49960  -13.48469  -18.68073
      H1    14.94541  -12.78807  -19.09855
       H    15.45451  -10.56044  -15.52223
       O    15.42501  -10.94753  -16.40797
      H1    14.72113  -10.42110  -16.84273
       H    19.69644  -17.12191  -15.41117
       O    19.29650  -16.65140  -16.13860
      H1    19.55798  -15.76008  -15.95119
       H    10.81943  -10.08733  -18.19108
       O    11.02164  -10.67302  -18.97006
      H1    11.36331  -11.52088  -18.45594
       H    16.22513  -14.52554  -12.57034
       O    15.55098  -13.85278  -12.72382
      H1    15.62407  -13.66978  -13.64717
       H    13.60475  -14.32204  -17.20329
       O    12.92201  -14.97606  -17.47615
      H1    13.11399  -15.72185  -16.84811
       H    16.81713  -11.86560  -13.20874
       O    17.53244  -11.16886  -13.17489
      H1    18.10363  -11.40310  -12.43818

