69
frame 10 | Written by MDAnalysis XYZWriter (release 2.4.3)
       H     8.41602   19.03828   13.88220
       O     9.11651   18.90711   13.19472
      H1     9.96247   18.74488   13.71661
       H    13.29943   17.79929   16.76302
       O    13.65894   17.59787   15.86860
      H1    13.91186   16.65976   15.87159
       H     7.01188   18.58254   15.43028
       O     6.72027   19.20255   14.70821
      H1     5.81912   18.93131   14.52755
       H     7.17418   17.39365    8.06136
       O     7.06862   16.43419    7.80098
      H1     6.21476   16.36967    7.32961
       H    14.18313   17.03574    8.71250
       O    14.07266   17.77130    9.32380
      H1    14.89014   18.14847    9.56169
       H     5.37524   17.72378   11.99846
       O     4.57472   18.09009   11.55504
      H1     4.22954   17.43150   10.93602
       H     7.47917   17.41050   12.39640
       O     6.76749   16.77445   12.38271
      H1     6.72927   16.41289   11.48954
       H     7.44527   15.70480   13.78030
       O     7.99335   15.32816   14.46927
      H1     8.00795   14.39444   14.47014
       H    10.08524   17.18093   12.01508
       O    10.58953   16.95540   11.27791
      H1    11.56194   17.05308   11.56277
       H    10.54678   18.04826    9.76434
       O    10.40620   18.46481    8.85718
      H1     9.56185   18.93651    8.86008
       H    11.37280   14.41297   15.69403
       O    11.47445   13.83194   16.48557
      H1    12.27683   13.33306   16.27662
       H    12.62692   18.85849   18.77915
       O    12.41740   18.13329   18.23954
      H1    11.46208   18.11112   18.20427
       H     8.90403   12.10552   15.37275
       O     8.27344   12.62377   14.84455
      H1     7.42364   12.32297   15.17444
       H     6.99753   19.45276    8.78683
       O     7.72697   19.14619    8.20933
      H1     7.41279   19.41721    7.33878
       H    15.38869   14.73450   12.93373
       O    14.50935   14.89598   13.30289
      H1    13.99382   14.10918   13.07401
       H     7.77844   16.49292   15.80338
       O     7.58433   17.26536   16.36461
      H1     6.73824   17.05566   16.83167
       H     6.39316   15.68261    9.39711
       O     5.90989   15.30121   10.10573
      H1     5.00060   15.59402   10.02816
       H     9.73391   16.37208   18.25143
       O     9.84565   17.34907   18.12172
      H1     9.16953   17.42848   17.44729
       H    10.64225   14.53440   11.03417
       O    10.57525   13.54352   11.00726
      H1    10.39211   13.27281   11.92403
       H    13.70555   16.50217   12.49115
       O    13.24417   17.16208   11.95882
      H1    13.71562   17.13502   11.11990
       H    14.67028   14.80005   14.99555
       O    14.61696   14.87406   15.98455
      H1    15.54470   15.08036   16.19715
       H     9.91846   15.27855   14.07117
       O    10.83920   15.44572   14.11455
      H1    10.91339   16.27629   14.61057
       H    10.83912   18.57375   15.79132
       O    11.14679   17.99663   15.08733
      H1    12.06964   17.89733   15.40115

