69
frame 10 | Written by MDAnalysis XYZWriter (release 2.4.3)
       H    13.20089  -14.81031   11.91222
       O    12.54410  -14.89637   11.16804
      H1    11.94813  -15.51952   11.62216
       H     7.02349  -18.21945   14.45726
       O     6.76601  -17.30346   14.21776
      H1     5.85236  -17.15229   14.39355
       H     7.40530  -17.70082   17.40850
       O     8.26072  -17.21359   17.30364
      H1     8.04998  -16.56928   16.66131
       H     8.58227  -13.32124   12.55350
       O     9.31802  -13.86475   12.93512
      H1     8.93244  -14.32676   13.70155
       H     7.23985  -10.96218   10.54813
       O     7.07039  -10.22365    9.87158
      H1     7.92037  -10.22846    9.31226
       H    11.80512  -14.71634   14.27044
       O    11.41328  -14.56924   15.11605
      H1    10.67768  -15.19560   15.33485
       H    11.45192  -12.79438   14.66982
       O    11.40528  -11.81485   14.63693
      H1    11.51335  -11.56742   13.69049
       H     4.61766  -14.06739   11.00186
       O     5.23941  -14.47916   11.67236
      H1     5.74246  -15.13550   11.15326
       H    11.19866  -17.78458   13.18690
       O    11.61616  -18.27913   13.93118
      H1    12.31947  -18.77992   13.49074
       H     9.05980   -9.59266   13.01880
       O     9.17761   -8.67340   12.73981
      H1     9.53043   -8.71332   11.82994
       H     9.93149  -11.82981   15.85091
       O     9.07263  -11.94701   16.29753
      H1     9.21735  -12.56607   17.00768
       H     8.12687  -16.02138   11.18917
       O     8.89763  -15.50333   10.84530
      H1     9.05514  -14.83038   11.56341
       H    10.94887  -11.71564   11.54091
       O    11.18270  -10.91191   12.09933
      H1    12.09025  -10.59784   11.77658
       H     7.67130  -15.99480   14.94653
       O     8.16475  -15.19711   15.19477
      H1     7.78719  -14.76986   16.04683
       H    11.56019  -17.16501   10.73560
       O    10.97819  -17.05812   11.46685
      H1    10.17904  -16.63754   11.05700
       H    10.44503   -9.98711   10.85092
       O    10.18247   -9.20204   10.34771
      H1    10.97537   -8.63817   10.29011
       H    14.62763  -15.67251   13.77287
       O    13.98489  -15.03662   13.43492
      H1    14.34578  -14.20637   13.62501
       H     7.53747  -12.02486   12.54238
       O     7.47924  -12.43876   11.64406
      H1     6.67161  -12.97552   11.69522
       H    11.20812  -12.68794    9.06644
       O    11.49903  -12.56394   10.03141
      H1    11.72892  -13.48186   10.30894
       H     4.11456  -12.42539   14.47570
       O     3.96070  -13.25896   14.05826
      H1     4.48829  -13.30360   13.29242
       H     7.65110  -11.38956   15.13373
       O     7.38453  -11.14033   14.23115
      H1     6.55529  -10.60927   14.31925
       H     6.78210  -15.02561    8.69745
       O     7.37935  -14.24450    8.81752
      H1     7.90333  -14.57207    9.54016
       H     7.30647  -17.83845   11.44878
       O     6.72669  -17.02407   11.57584
      H1     6.64260  -16.89202   12.55493

