69
frame 10 | Written by MDAnalysis XYZWriter (release 2.4.3)
       H     3.23133    6.43157    6.95989
       O     3.61358    6.09821    6.15293
      H1     4.02616    5.25552    6.43396
       H     0.64981    9.05557    6.27567
       O     1.59780    8.96478    6.21510
      H1     1.90731    9.87142    6.38297
       H     1.73518   15.14225    7.01510
       O     2.18564   15.87600    7.38375
      H1     2.00645   16.64341    6.87279
       H     3.37365   11.92869    6.27356
       O     2.70972   11.42960    6.78137
      H1     3.06827   11.43866    7.66937
       H     0.19022    9.35040   11.00196
       O    -0.31385   10.18095   11.13556
      H1    -0.69950   10.45413   10.31428
       H     0.44033   13.77866    6.05687
       O     0.75208   13.52533    6.95699
      H1     1.33167   12.78635    6.85203
       H     7.11099    8.40578    6.78088
       O     6.72309    8.90970    7.49450
      H1     7.08734    9.83484    7.41507
       H     5.91266   13.68152   10.75004
       O     5.79644   12.73477   10.96951
      H1     5.10589   12.52001   10.36732
       H    -2.29284   13.63562    6.68043
       O    -1.94132   13.53282    7.57135
      H1    -0.95567   13.47810    7.53149
       H     1.06785   14.11143   10.73069
       O     1.93697   14.03077   11.11835
      H1     2.25816   13.14647   10.96742
       H     2.84353   15.38682   10.53979
       O     3.21327   16.02690    9.95065
      H1     2.67873   15.85291    9.15847
       H     1.94578    7.75435   10.40641
       O     1.87339    8.11624   11.33068
      H1     1.60600    7.33891   11.81055
       H     5.74053   10.82854    3.63711
       O     5.56816   10.82454    4.56927
      H1     5.18267    9.94175    4.61019
       H     2.19101   11.22931    2.83653
       O     2.94398   11.53676    2.32344
      H1     2.61057   11.72251    1.41656
       H     4.61535   13.35620    5.05789
       O     5.12807   13.21537    5.94893
      H1     5.33885   12.26785    5.79384
       H     8.01953   12.29860    6.47020
       O     7.88122   11.41300    6.77913
      H1     8.61805   11.34044    7.38489
       H     5.19532   15.01120    6.31045
       O     4.99206   15.97008    6.33877
      H1     4.01828   15.98383    6.44887
       H     3.57649    8.94603   11.87511
       O     4.20852    9.57311   11.68071
      H1     4.85003    9.60272   12.42932
       H     3.30182    7.38079    8.49937
       O     2.39865    7.13091    8.25603
      H1     2.13068    7.72951    7.55509
       H     0.79874    9.94231    4.18612
       O     0.71104   10.91509    4.16218
      H1    -0.21059   11.05860    3.87786
       H     3.28306   10.72691   12.61700
       O     2.72847   11.32172   13.13336
      H1     3.24886   12.08009   13.36554
       H     2.53179   10.99742    9.87021
       O     3.44037   11.34177    9.59211
      H1     4.05039   10.63033    9.72732
       H     5.00720   13.81281    2.68907
       O     4.30439   13.72262    3.27803
      H1     3.91373   12.89510    2.96606

