69
frame 10 | Written by MDAnalysis XYZWriter (release 2.4.3)
       H    15.36355  -11.92258   12.60677
       O    15.40353  -12.52378   13.43796
      H1    14.97833  -12.02838   14.12761
       H    11.45192  -12.79438   14.66982
       O    11.40528  -11.81485   14.63693
      H1    11.51335  -11.56742   13.69049
       H    13.05955  -10.93623   15.15302
       O    14.00132  -10.73081   15.22678
      H1    14.25288  -10.23281   15.99931
       H    11.41958   -7.22769   14.21908
       O    11.80260   -8.14082   13.94804
      H1    11.00089   -8.58321   13.61606
       H     9.98732  -10.74861   17.36925
       O    10.82828  -10.32866   17.67941
      H1    10.84472  -10.55976   18.64492
       H    13.79806   -7.89576   16.55507
       O    14.23549   -7.59478   15.73895
      H1    13.55145   -7.65035   15.09658
       H    12.82412   -4.00741   18.36611
       O    13.40255   -4.66154   17.87110
      H1    14.27280   -4.33745   18.12051
       H    16.15878  -12.44245   17.02937
       O    17.15696  -12.36255   16.99937
      H1    17.34859  -11.93234   16.15727
       H    19.00466  -10.36814   15.43204
       O    18.19317  -10.69259   14.93618
      H1    17.84074   -9.93026   14.45898
       H    16.47842   -4.21568   18.77311
       O    15.76531   -3.62097   18.50410
      H1    15.91515   -2.83629   19.01517
       H    10.20063   -5.63602   15.65025
       O    10.88051   -5.63317   14.92825
      H1    11.69798   -5.17578   15.30850
       H    14.60777  -10.58384   18.76937
       O    15.27466  -10.28941   18.11057
      H1    16.10794  -10.46380   18.50214
       H    13.40225   -9.27265   18.06436
       O    13.06229   -8.38586   17.98269
      H1    12.15232   -8.43957   17.92782
       H    15.52505   -6.83372   11.96686
       O    14.59079   -6.53815   11.88395
      H1    14.52954   -5.80060   12.47413
       H    13.53169   -9.80584   12.76955
       O    13.74446  -10.20424   11.91872
      H1    13.69055   -9.44461   11.30511
       H     9.87779   -6.27029   18.43367
       O    10.42484   -6.39719   17.62458
      H1    11.28320   -6.54315   18.03798
       H    12.50603   -3.28701   15.15568
       O    13.16719   -4.04073   15.36024
      H1    13.15447   -4.14747   16.33336
       H    17.54094   -7.88775   14.05926
       O    16.83959   -8.55264   13.92864
      H1    16.19677   -8.29064   14.60491
       H     7.55366   -8.18472   17.37791
       O     7.69709   -9.08430   17.70919
      H1     8.59106   -9.21745   17.38547
       H    15.98948   -6.84234   15.75304
       O    16.86077   -6.41327   15.82767
      H1    16.97052   -5.66898   15.14879
       H    14.46328   -3.90778   14.35942
       O    15.11762   -3.71545   13.63357
      H1    15.50023   -2.84327   13.71682
       H    18.20142   -6.23433   18.72952
       O    17.61228   -5.58228   18.33351
      H1    17.28471   -5.98428   17.48532
       H    10.13649   -4.83186   12.17000
       O    11.07544   -5.03500   12.35646
      H1    11.07890   -5.19921   13.31305

