69
frame 10 | Written by MDAnalysis XYZWriter (release 2.4.3)
       H    -3.86023   -3.02480  -11.79592
       O    -3.16625   -3.49748  -11.31500
      H1    -2.34701   -3.04433  -11.61429
       H    -5.17765   -6.24384  -18.89728
       O    -5.59935   -6.37215  -18.05393
      H1    -4.90325   -6.93915  -17.61549
       H    -8.72829  -10.61937  -11.17018
       O    -8.29767  -10.50896  -12.05581
      H1    -7.41801  -10.15461  -11.73293
       H    -1.95856  -10.12669  -13.14038
       O    -1.37844   -9.49396  -13.60250
      H1    -1.56452   -9.62221  -14.52511
       H    -0.75687   -5.72409   -9.57203
       O    -1.35180   -6.47871   -9.87014
      H1    -2.25339   -6.10490   -9.99582
       H    -5.08054   -9.11506  -11.81404
       O    -5.77480   -9.50432  -11.26585
      H1    -5.54578   -9.10557  -10.39975
       H    -8.85042   -7.06230  -12.31073
       O    -9.24241   -7.15341  -11.45889
      H1    -9.86898   -6.44915  -11.25905
       H    -1.49883   -6.87067  -17.20464
       O    -1.85462   -6.34678  -17.90229
      H1    -2.24599   -5.62924  -17.43854
       H    -7.09932   -6.67390  -16.53744
       O    -7.17304   -7.48486  -16.00063
      H1    -7.99486   -7.32200  -15.53380
       H    -4.29615  -10.63123  -15.32444
       O    -3.50563  -11.03482  -15.61994
      H1    -3.43684  -10.65896  -16.48774
       H    -3.28153  -11.94263  -12.88879
       O    -2.79073  -11.40685  -12.23860
      H1    -2.29699  -12.04275  -11.65119
       H    -3.65393   -5.05523  -10.93362
       O    -3.92285   -5.93559  -10.56169
      H1    -3.71731   -6.49420  -11.35525
       H    -2.80447   -8.37550  -13.24193
       O    -3.56062   -8.24735  -12.62486
      H1    -4.21515   -7.81765  -13.23812
       H    -8.65531   -3.71650  -12.86222
       O    -7.87434   -4.03539  -12.34165
      H1    -7.96648   -4.98587  -12.40292
       H    -4.88413   -3.83585  -13.96069
       O    -4.63926   -4.30452  -14.73423
      H1    -3.73906   -3.94615  -14.95736
       H    -3.26936   -8.58069  -16.96648
       O    -3.96820   -8.95901  -17.48978
      H1    -3.94510   -8.53928  -18.36029
       H    -4.99159   -5.94546  -14.40499
       O    -5.42139   -6.83114  -14.13374
      H1    -6.05497   -7.00702  -14.87528
       H    -4.73017   -7.30348   -9.26377
       O    -4.85856   -8.20384   -8.94649
      H1    -3.94966   -8.53617   -8.90804
       H    -0.51218   -6.84609  -11.46501
       O    -0.12099   -6.98645  -12.31947
      H1    -0.51031   -7.83502  -12.64561
       H     0.15265   -5.33489  -13.22709
       O     0.33235   -4.40369  -13.53825
      H1     0.76871   -4.66860  -14.35605
       H    -3.53779  -11.25672  -10.47681
       O    -3.90266  -11.74363   -9.74441
      H1    -4.77170  -11.36426   -9.46176
       H    -0.90564   -9.27527  -17.15432
       O    -1.10668   -8.82759  -16.34213
      H1    -0.29141   -8.33457  -16.02211
       H     0.42321  -11.79039  -13.28469
       O     0.83508  -11.02931  -12.82205
      H1     0.12636  -10.36970  -12.91014

