69
frame 10 | Written by MDAnalysis XYZWriter (release 2.4.3)
       H    -6.31128  -16.62170    6.14465
       O    -6.41770  -17.41286    5.70191
      H1    -6.46345  -17.21427    4.72394
       H    -9.24697  -18.28329    2.67952
       O    -8.48769  -18.93020    2.62308
      H1    -8.50121  -19.32759    3.46667
       H   -10.84367  -12.22845    0.47231
       O   -11.13828  -12.07606    1.39802
      H1   -10.36577  -11.59505    1.73731
       H    -9.92172  -14.69619    6.77901
       O    -9.79409  -15.58234    7.12835
      H1   -10.34003  -15.74081    7.92699
       H   -16.72459  -18.95939    0.92683
       O   -15.79287  -18.86797    0.74648
      H1   -15.41025  -18.60573    1.66591
       H   -11.69482  -19.27409    1.05080
       O   -12.52925  -19.26611    1.52876
      H1   -12.36989  -19.89641    2.25621
       H   -15.40161  -18.26902    3.78598
       O   -14.79443  -18.48141    3.11596
      H1   -14.51966  -19.36164    3.15111
       H   -12.47953  -19.04083    6.82289
       O   -11.84115  -18.32507    6.90110
      H1   -11.80079  -17.80699    6.02900
       H   -13.24301  -12.79287    1.78331
       O   -14.04195  -12.96806    1.29579
      H1   -13.98184  -13.88009    1.14627
       H   -11.43302  -17.14911    2.15643
       O   -10.50952  -17.10484    2.31768
      H1   -10.06933  -16.61343    1.56300
       H   -11.09162  -16.47421    4.08399
       O   -11.44954  -16.40893    4.94633
      H1   -10.72089  -16.05976    5.45021
       H    -6.95438  -17.69129    2.74733
       O    -6.13463  -17.21511    2.71518
      H1    -6.24989  -16.76217    1.81575
       H    -6.83657  -13.97123    2.69648
       O    -6.11427  -14.30280    3.16592
      H1    -6.10484  -15.24404    2.94736
       H    -8.76008  -19.21291    7.40697
       O    -8.10146  -18.49005    7.61602
      H1    -7.78105  -18.22604    6.74175
       H    -5.83945  -16.17644   -0.26487
       O    -6.41953  -15.72865    0.37464
      H1    -6.91769  -15.07880   -0.08974
       H    -7.74625  -12.63146    0.95937
       O    -8.17488  -13.16122    1.65309
      H1    -8.82736  -13.63866    1.13592
       H    -8.84908  -16.87117   -0.27506
       O    -9.45586  -16.12085   -0.11680
      H1   -10.14650  -16.21629   -0.75108
       H   -12.72114  -13.33775    6.71562
       O   -11.93893  -13.80516    6.42204
      H1   -12.28258  -14.31846    5.68894
       H    -7.35216  -19.10485   -0.55521
       O    -7.77940  -18.26199   -0.87907
      H1    -7.08848  -17.80554   -1.42044
       H   -14.32018  -13.79127    3.70905
       O   -13.98839  -14.52224    4.20194
      H1   -14.73553  -14.64536    4.81792
       H   -12.01575  -15.76707   -1.63246
       O   -11.37855  -15.91112   -2.32483
      H1   -11.90156  -16.56378   -2.83730
       H   -13.75467  -16.94833    2.36974
       O   -13.36640  -16.09167    2.09130
      H1   -13.47871  -15.76589    2.99912
       H   -14.02476  -14.53277   -0.59222
       O   -13.55320  -15.31453   -0.44470
      H1   -13.42879  -15.46527    0.48307

