69
frame 1 | Written by MDAnalysis XYZWriter (release 2.4.3)
       H    -6.73384   13.95164  -15.41081
       O    -6.59848   13.90429  -16.38411
      H1    -5.68956   14.20592  -16.53023
       H    -2.72170   18.07396  -13.34424
       O    -2.71166   18.98948  -13.66614
      H1    -2.16904   19.04032  -14.49937
       H    -4.04856   19.44454  -11.66729
       O    -4.91768   19.07247  -11.59700
      H1    -5.50577   19.79265  -11.30568
       H     4.35575   16.66243  -14.97560
       O     3.89225   16.54308  -15.85384
      H1     3.29726   17.32574  -15.99264
       H    -5.87575   18.96410  -15.84903
       O    -5.88728   19.49818  -14.99301
      H1    -5.56602   18.98454  -14.25340
       H     0.04875   15.67708  -12.51798
       O     0.66962   15.86977  -13.21095
      H1     1.30238   15.18304  -13.14203
       H    -3.78431   15.86537  -17.88874
       O    -3.89050   14.95136  -17.51700
      H1    -4.29910   14.51614  -18.30710
       H    -2.75251   19.13757  -10.19292
       O    -2.70406   18.59444   -9.40499
      H1    -3.61440   18.69324   -9.06090
       H    -0.83316   18.68493  -15.63315
       O    -1.55932   18.20707  -16.05242
      H1    -1.42744   17.23731  -15.83941
       H    -0.35791   12.06515  -14.21449
       O    -0.10824   12.87721  -13.75652
      H1    -0.12218   13.51995  -14.42086
       H    -6.06568   17.48115  -17.81409
       O    -6.42095   18.18410  -17.27488
      H1    -6.69030   18.89501  -17.88947
       H     1.67644   13.57908  -16.79472
       O     2.08835   14.23969  -17.35338
      H1     2.37753   14.92904  -16.78076
       H     1.09057   17.79117  -13.30675
       O     1.53536   18.55687  -13.56020
      H1     1.95030   18.53731  -14.42903
       H    -1.57332   13.03252  -18.18889
       O    -1.53222   12.89865  -17.22630
      H1    -1.81021   13.74824  -16.78399
       H    -3.36700   18.38448  -18.34729
       O    -3.55541   17.65656  -19.01741
      H1    -2.68881   17.22860  -19.24650
       H     1.72283   18.65080  -16.89048
       O     2.43783   18.98712  -16.32034
      H1     3.01110   19.20876  -17.11094
       H    -2.62456   15.29848  -15.98058
       O    -1.81969   15.08292  -15.51420
      H1    -2.11306   15.17553  -14.62389
       H     0.09868   17.70565  -18.90877
       O    -0.00268   18.38396  -18.20662
      H1    -0.75776   18.19868  -17.64333
       H     2.67060   13.73762  -13.84690
       O     2.38876   13.73771  -12.88489
      H1     1.50846   13.27407  -12.89422
       H    -2.20315   16.42437  -11.93000
       O    -2.69498   16.20449  -12.71058
      H1    -3.57611   16.34883  -12.37787
       H     0.02271   12.23126  -16.95381
       O     0.80285   11.65270  -16.94288
      H1     0.85103   11.26466  -17.87055
       H    -5.30067   15.63150  -11.62936
       O    -5.27070   16.44401  -12.14937
      H1    -5.42532   17.17896  -11.50817
       H    -0.67124   15.74838   -9.82663
       O    -1.46922   16.09548  -10.21886
      H1    -1.69546   16.89174   -9.69567

