69
frame 10 | Written by MDAnalysis XYZWriter (release 2.4.3)
       H     4.94697   11.84445   18.38968
       O     4.39217   12.13589   17.62051
      H1     4.95761   11.92378   16.85591
       H     5.30411   12.58193   14.58282
       O     5.78345   11.92353   15.20804
      H1     5.92571   11.05289   14.73096
       H     1.99593   16.09642   16.31184
       O     1.54597   16.22165   17.14597
      H1     2.09639   15.65363   17.79202
       H     7.01188   18.58254   15.43028
       O     6.72027   19.20255   14.70821
      H1     5.81912   18.93131   14.52755
       H     4.10468   14.49925   14.01610
       O     4.34319   13.64297   13.69394
      H1     4.76995   13.68406   12.85528
       H     3.30750   19.04352   12.32745
       O     2.67204   19.44092   12.92337
      H1     2.97887   19.26944   13.83310
       H     5.37524   17.72378   11.99846
       O     4.57472   18.09009   11.55504
      H1     4.22954   17.43150   10.93602
       H     7.47917   17.41050   12.39640
       O     6.76749   16.77445   12.38271
      H1     6.72927   16.41289   11.48954
       H     7.44527   15.70480   13.78030
       O     7.99335   15.32816   14.46927
      H1     8.00795   14.39444   14.47014
       H     3.92945   13.75007   17.90845
       O     3.65563   14.61515   18.17579
      H1     3.41793   14.59237   19.10214
       H     8.90403   12.10552   15.37275
       O     8.27344   12.62377   14.84455
      H1     7.42364   12.32297   15.17444
       H     2.24023    9.98526   14.30435
       O     1.94869    9.23455   14.88811
      H1     2.13143    9.45504   15.81941
       H     5.91266   13.68152   10.75004
       O     5.79644   12.73477   10.96951
      H1     5.10589   12.52001   10.36732
       H     1.18816   18.61979   13.11748
       O     0.30891   18.25002   13.35623
      H1     0.49439   17.31616   13.17566
       H     0.83345   15.24417   14.04974
       O     1.42320   15.71272   13.41680
      H1     1.68125   15.08988   12.78275
       H     1.06785   14.11143   10.73069
       O     1.93697   14.03077   11.11835
      H1     2.25816   13.14647   10.96742
       H     2.84353   15.38682   10.53979
       O     3.21327   16.02690    9.95065
      H1     2.67873   15.85291    9.15847
       H     0.92540   11.58890   13.33439
       O    -0.00232   11.77181   13.31451
      H1    -0.25640   11.41324   12.45715
       H     5.63508   17.20592   18.55668
       O     4.89451   17.19992   17.88326
      H1     4.58644   16.24777   18.01261
       H     7.77844   16.49292   15.80338
       O     7.58433   17.26536   16.36461
      H1     6.73824   17.05566   16.83167
       H     6.39316   15.68261    9.39711
       O     5.90989   15.30121   10.10573
      H1     5.00060   15.59402   10.02816
       H     3.28306   10.72691   12.61700
       O     2.72847   11.32172   13.13336
      H1     3.24886   12.08009   13.36554
       H     4.05642   16.62063   15.47465
       O     4.00939   16.26371   14.61951
      H1     3.48877   16.87153   14.12847

