69
frame 10 | Written by MDAnalysis XYZWriter (release 2.4.3)
       H    -2.86918   10.51408    9.33595
       O    -2.30402   10.73327    8.59034
      H1    -2.49273   11.69523    8.52760
       H    -3.32067    4.58016   12.60245
       O    -3.42130    3.64775   12.25649
      H1    -4.16241    3.47259   12.90937
       H    -0.46093   10.54777   18.76161
       O    -0.44308   11.52590   18.53502
      H1    -0.72030   11.59508   17.59442
       H    -1.88066    6.38586   10.01490
       O    -1.79820    6.45085   10.99443
      H1    -2.25562    7.22662   11.25178
       H    -6.61012   11.78036   13.10822
       O    -7.23035   11.48858   12.39562
      H1    -6.63422   11.53799   11.59070
       H     0.19022    9.35040   11.00196
       O    -0.31385   10.18095   11.13556
      H1    -0.69950   10.45413   10.31428
       H    -1.80308    9.38860   12.14282
       O    -2.71731    9.17921   12.52174
      H1    -2.69844    9.55374   13.39240
       H    -4.75883    8.44392   10.17949
       O    -4.25751    9.29253   10.18074
      H1    -4.08853    9.42876   11.13510
       H     2.24023    9.98526   14.30435
       O     1.94869    9.23455   14.88811
      H1     2.13143    9.45504   15.81941
       H    -6.70096    7.48457   15.23731
       O    -6.15866    7.86780   14.55203
      H1    -5.32391    8.12296   15.05141
       H    -6.65064    6.75342   11.76504
       O    -7.32142    6.52330   12.41956
      H1    -6.83316    6.71926   13.23875
       H    -1.55343    8.11033   17.90912
       O    -1.69438    7.76764   16.99534
      H1    -0.85225    7.72183   16.58230
       H    -1.74200    4.77733   15.63973
       O    -2.42947    5.23321   16.21353
      H1    -2.03548    5.99421   16.64615
       H     0.98209    6.56818   16.20901
       O     0.59155    7.13834   15.55185
      H1     1.18245    7.89387   15.34154
       H     0.92540   11.58890   13.33439
       O    -0.00232   11.77181   13.31451
      H1    -0.25640   11.41324   12.45715
       H    -3.80796   12.02138   14.55834
       O    -3.31538   11.29185   14.93824
      H1    -2.42742   11.61115   15.08200
       H    -0.19714    5.99510   12.12659
       O     0.55322    6.13208   12.74860
      H1     0.15148    6.51187   13.59453
       H    -5.62830   13.60149   14.22234
       O    -5.57631   12.61818   14.35072
      H1    -5.85710   12.45131   15.25138
       H    -6.14796   11.97079    9.62249
       O    -5.53647   11.57464   10.22287
      H1    -5.31525   10.65104    9.96464
       H     0.09839   10.64255   15.60631
       O    -0.54666   11.33443   15.86043
      H1    -0.52047   11.79658   15.03783
       H    -3.01951    5.75841   14.59794
       O    -3.15716    6.16747   13.70573
      H1    -3.48890    7.08110   13.81555
       H    -3.93272    9.65197   15.61401
       O    -4.00724    8.85240   16.10232
      H1    -3.08711    8.61460   16.34672
       H    -4.63458    8.29174   17.74223
       O    -4.92102    7.72260   18.46774
      H1    -5.26688    8.32566   19.14867

