69
frame 10 | Written by MDAnalysis XYZWriter (release 2.4.3)
       H    13.22766    5.51054   16.54482
       O    13.14743    4.63296   16.86136
      H1    12.65169    4.12822   16.23279
       H    16.14902    6.23822   10.79614
       O    15.24754    6.61219   10.73687
      H1    14.83332    6.48163   11.59125
       H    17.82678   10.93906   13.19734
       O    17.67139   10.74653   14.12107
      H1    18.28422   11.32465   14.56978
       H    11.33168    8.84369   11.29616
       O    11.85664    9.54155   11.67967
      H1    12.11758   10.13280   10.92869
       H    18.23675    6.91325   10.37686
       O    17.87782    5.99516   10.35305
      H1    17.93688    5.81466    9.36614
       H    14.08849   11.15776   11.48886
       O    14.72409   10.57774   11.00550
      H1    14.34089   10.35855   10.09930
       H    16.56448    3.61761   13.76660
       O    16.60902    3.79982   14.71475
      H1    15.83371    3.47273   15.16498
       H    14.17234    8.82895   13.80018
       O    13.26562    8.90977   14.12297
      H1    12.66851    8.79159   13.33742
       H    15.13026    7.71725   17.72773
       O    16.05838    7.39927   17.74834
      H1    16.14486    6.93398   16.88501
       H    15.61190    8.11980    7.66648
       O    15.47174    7.18329    7.69762
      H1    15.49265    6.93187    8.62228
       H    14.02617   11.59176   15.75648
       O    13.17388   11.44832   15.36079
      H1    13.07864   10.51757   15.08137
       H    13.28169    6.58683   13.67624
       O    13.46274    6.24432   12.78802
      H1    13.37918    5.27028   12.81341
       H    17.82853   10.08293   11.17530
       O    17.43410   10.96887   11.46161
      H1    16.48873   10.81875   11.56086
       H    18.72396    7.28395   15.58411
       O    19.29110    7.77035   16.23910
      H1    18.68009    8.35958   16.70132
       H    11.99872    6.98939   16.00351
       O    12.92636    6.95583   15.84820
      H1    13.10408    7.78035   15.35004
       H    10.91958    4.75930   11.03051
       O    10.91568    5.44543   11.70226
      H1    11.78473    5.70972   11.95955
       H    16.87800    5.70761   14.66152
       O    17.08507    6.55369   15.03056
      H1    16.64819    7.16857   14.40988
       H    16.30561   11.48922   15.19997
       O    15.75231   12.15119   15.67128
      H1    15.60227   12.83321   15.00635
       H    12.39045   12.53991   12.41802
       O    13.30198   12.54777   12.74227
      H1    13.20905   12.19186   13.64017
       H    12.78140    6.02538    8.91089
       O    13.38126    5.42300    9.38503
      H1    14.03442    5.90870    9.90659
       H    19.25008    9.13204    9.97401
       O    18.62312    8.62503   10.54692
      H1    19.29897    8.29574   11.23590
       H    15.48980    8.83579   12.60772
       O    15.85891    8.61929   13.51629
      H1    16.44655    9.37281   13.78333
       H    17.39189   10.43539   18.20471
       O    17.76758    9.52742   18.17924
      H1    17.01030    8.95461   18.31040

