69
frame 10 | Written by MDAnalysis XYZWriter (release 2.4.3)
       H   -15.67124    5.27429  -19.67153
       O   -14.72849    5.52404  -19.45869
      H1   -14.55015    6.44909  -19.76343
       H   -15.30973   -2.20371  -16.35991
       O   -14.69457   -1.48375  -16.14210
      H1   -15.25881   -0.94616  -15.56476
       H   -15.25319    4.76227  -17.87538
       O   -15.43433    4.45100  -16.98115
      H1   -14.68716    3.79665  -16.82315
       H   -10.71539    7.10578  -17.58063
       O   -10.30323    7.67940  -18.24620
      H1   -10.67348    8.53262  -18.05845
       H   -10.06325    5.50196  -13.82340
       O    -9.86034    5.96076  -14.63346
      H1    -8.98151    5.64879  -14.93353
       H   -13.13667   -1.42536  -15.11140
       O   -12.34936   -1.40950  -14.55569
      H1   -12.49544   -0.63010  -13.99955
       H   -10.62367    5.29984  -11.35769
       O   -10.48610    4.67846  -12.13447
      H1   -11.39452    4.38631  -12.37757
       H   -15.39377    4.89250  -14.58969
       O   -14.90229    5.34897  -13.89065
      H1   -14.47846    6.04382  -14.43616
       H   -15.43533   -0.81559  -18.92206
       O   -14.48939   -1.02000  -18.78340
      H1   -14.41181   -1.02094  -17.75915
       H    -9.30866    2.05143  -15.01198
       O    -8.49011    1.56050  -14.95978
      H1    -8.69893    0.72285  -15.32806
       H    -8.26898   -2.67274  -19.26592
       O    -8.79043   -1.84902  -19.28004
      H1    -9.69588   -2.13981  -19.45636
       H    -8.94673    4.10290  -18.31423
       O    -8.80414    3.26448  -17.89721
      H1    -9.66840    2.95036  -17.50947
       H    -8.50162    0.30539  -19.45334
       O    -8.46743    1.22579  -19.73249
      H1    -8.59946    1.86361  -18.97797
       H   -13.78086    4.30737  -13.19816
       O   -13.03134    3.73071  -12.96134
      H1   -13.22850    3.29368  -12.10543
       H   -10.88742    1.03989  -11.92920
       O   -11.47914    0.31072  -12.21961
      H1   -12.25094    0.74649  -12.62414
       H    -7.25549    5.47157  -16.45586
       O    -7.73799    4.76163  -15.89912
      H1    -7.92851    4.08066  -16.51288
       H   -10.24771   -1.37977  -17.26343
       O   -10.13192   -0.94427  -16.40147
      H1   -10.95068   -1.22227  -15.93376
       H   -13.08952    3.61496  -17.64343
       O   -12.99436    3.11673  -16.79277
      H1   -12.64177    3.77102  -16.14756
       H   -17.81435    2.94213  -15.25961
       O   -17.28325    2.68421  -16.02859
      H1   -16.81556    3.38227  -16.42513
       H   -11.72193    2.08996  -16.96322
       O   -10.83131    1.72413  -16.94514
      H1   -10.79009    0.76632  -16.93270
       H   -12.68756    6.38114  -16.38674
       O   -11.90953    5.80332  -16.45304
      H1   -11.25481    6.25055  -15.89780
       H   -14.69449    0.91947  -13.17472
       O   -13.79206    1.19783  -13.39032
      H1   -13.70582    2.20839  -13.37958
       H    -7.40727    2.94945  -14.04875
       O    -6.74311    3.21342  -13.36740
      H1    -6.53155    4.18660  -13.50809

