6
frame 1 | Written by MDAnalysis XYZWriter (release 2.4.3)
       H    17.65761   -5.40307   15.76654
       O    17.46341   -4.47418   15.93385
      H1    18.33009   -4.03534   15.93914
       H    16.65471   -4.53668   14.44323
       O    16.36432   -4.81492   13.56066
      H1    16.45003   -3.96100   13.12206

