6
frame 0 | Written by MDAnalysis XYZWriter (release 2.4.3)
       H    -3.35955    7.91354   11.90389
       O    -4.11336    7.48261   11.49467
      H1    -4.13070    6.55997   11.68128
       H    -6.13072    8.27022    9.31593
       O    -6.26688    8.48150   10.22110
      H1    -5.50574    8.07074   10.62162

