6
frame 1 | Written by MDAnalysis XYZWriter (release 2.4.3)
       H   -12.29986   -8.81803   -8.26862
       O   -12.01853   -8.09762   -8.82727
      H1   -12.85365   -7.69739   -9.03276
       H   -10.09678   -6.38940   -7.48836
       O   -10.16863   -7.27493   -7.12449
      H1   -10.75027   -7.72372   -7.72062

