6
frame 1 | Written by MDAnalysis XYZWriter (release 2.4.3)
       H    12.86300    6.71561   14.53034
       O    12.19401    6.67747   13.79561
      H1    11.34815    6.75389   14.25636
       H    11.78066    6.71711   11.80764
       O    11.53519    7.09641   10.94322
      H1    10.66556    6.75794   10.73232

