6
frame 1 | Written by MDAnalysis XYZWriter (release 2.4.3)
       H   -18.74566   14.33433  -17.21063
       O   -18.51949   13.97711  -18.04809
      H1   -18.10830   13.19471  -17.73156
       H   -16.16649   14.95665  -19.77733
       O   -16.59196   15.51873  -19.13259
      H1   -17.34463   15.03575  -18.83341

