6
frame 1 | Written by MDAnalysis XYZWriter (release 2.4.3)
       H     9.23054  -14.31141    6.30247
       O    10.13057  -14.46885    6.56883
      H1    10.58716  -14.48116    5.70595
       H     7.93079  -13.51895    4.66337
       O     7.68699  -14.11809    5.40679
      H1     7.34873  -14.89051    4.96366

