6
frame 1 | Written by MDAnalysis XYZWriter (release 2.4.3)
       H    -5.68336  -13.86753   19.34102
       O    -5.78793  -13.01883   18.86434
      H1    -4.92936  -12.55180   18.83308
       H    -5.21885  -14.53603   17.12106
       O    -5.51145  -14.59838   16.20062
      H1    -6.44935  -14.40592   16.19091

