6
frame 1 | Written by MDAnalysis XYZWriter (release 2.4.3)
       H   -18.77510   12.46955   -3.69630
       O   -18.01158   12.92406   -3.33329
      H1   -18.27002   13.09770   -2.41431
       H   -18.27608   11.04940   -5.44410
       O   -19.08781   11.54409   -5.47120
      H1   -18.98585   12.47175   -5.56544

