6
frame 1 | Written by MDAnalysis XYZWriter (release 2.4.3)
       H     6.34214    4.69798   17.70538
       O     5.77345    5.33073   18.08722
      H1     5.42233    5.91051   17.43363
       H     7.72628    3.44163   17.09464
       O     8.11614    3.44377   18.01772
      H1     7.44488    3.06629   18.66626

