6
frame 1 | Written by MDAnalysis XYZWriter (release 2.4.3)
       H   -13.38988   15.14030  -14.76253
       O   -14.28502   14.87463  -14.60514
      H1   -14.62560   14.71656  -15.51305
       H   -15.01123   13.47107  -17.15605
       O   -15.88984   13.78664  -16.93823
      H1   -16.25451   14.25049  -17.65320

