6
frame 1 | Written by MDAnalysis XYZWriter (release 2.4.3)
       H   -14.92050   19.73330  -16.86864
       O   -15.15220   18.82448  -16.73461
      H1   -15.18735   18.58361  -17.69059
       H   -18.00805   18.13974  -16.28422
       O   -17.55978   18.67888  -15.64392
      H1   -16.63966   18.59490  -16.01022

