6
frame 2 | Written by MDAnalysis XYZWriter (release 2.4.3)
       H    12.07191    0.98239   14.46243
       O    12.08086    0.02793   14.14040
      H1    12.22876    0.09608   13.20296
       H    13.73827    0.50806   11.29405
       O    13.66246   -0.41966   11.67037
      H1    13.88463   -1.02183   10.96509

