6
frame 2 | Written by MDAnalysis XYZWriter (release 2.4.3)
       H    -0.87390  -13.85049   13.15614
       O    -0.33907  -14.65041   13.25170
      H1    -0.51390  -15.23240   12.53065
       H    -0.01572  -15.91049   10.47069
       O    -0.82451  -15.53950   10.82672
      H1    -0.78186  -14.58858   10.83918

