6
frame 2 | Written by MDAnalysis XYZWriter (release 2.4.3)
       H    -6.51341    5.89477   -5.26637
       O    -5.99092    5.12143   -5.30793
      H1    -6.47469    4.44911   -4.76397
       H    -4.23855    5.46408   -5.44904
       O    -3.30578    5.48255   -5.69656
      H1    -2.77860    5.04341   -5.04016

