6
frame 2 | Written by MDAnalysis XYZWriter (release 2.4.3)
       H     5.25591   -8.94835  -17.25647
       O     5.90045   -8.64865  -17.96264
      H1     5.80698   -7.66003  -17.90994
       H     2.80288   -8.65758  -15.96148
       O     3.39450   -9.41732  -16.30732
      H1     3.98575   -9.69665  -15.59816

