6
frame 2 | Written by MDAnalysis XYZWriter (release 2.4.3)
       H    15.99972    4.85757   18.47013
       O    15.36032    4.55382   17.83555
      H1    15.23358    5.31210   17.31712
       H    15.29765    7.27550   16.09007
       O    14.59328    6.78907   16.55067
      H1    14.14958    7.15986   17.28527

