6
frame 2 | Written by MDAnalysis XYZWriter (release 2.4.3)
       H    -9.46512  -18.69160   -0.72587
       O    -9.70772  -18.13029   -1.56567
      H1   -10.68188  -17.95617   -1.65524
       H   -12.36670  -17.51264   -1.68299
       O   -12.02042  -17.39575   -2.56693
      H1   -11.98510  -18.26417   -2.98037

