6
frame 2 | Written by MDAnalysis XYZWriter (release 2.4.3)
       H    15.31859   15.83286   12.16291
       O    14.38501   15.68496   12.41940
      H1    14.34164   14.75057   12.42233
       H    13.79748   16.89113   11.25383
       O    13.57463   17.31515   10.36563
      H1    13.83772   16.72344    9.63474

