6
frame 2 | Written by MDAnalysis XYZWriter (release 2.4.3)
       H     4.44435   13.25363   13.49292
       O     5.27921   12.69921   13.50999
      H1     5.61298   12.81411   12.58372
       H     4.31506    9.81670   12.42101
       O     4.80600   10.01624   13.24292
      H1     4.85112   10.91803   13.36830

