6
frame 2 | Written by MDAnalysis XYZWriter (release 2.4.3)
       H     6.54482    2.44565  -12.96163
       O     6.64204    1.70588  -13.57860
      H1     7.35027    1.14017  -13.31838
       H     8.50066    4.28223  -15.21097
       O     9.06263    3.82685  -14.51462
      H1     8.49243    3.07901  -14.29359

