6
frame 0 | Written by MDAnalysis XYZWriter (release 2.4.3)
       H     9.55938  -17.41239   -0.08639
       O     8.91540  -17.82254   -0.63687
      H1     9.41729  -17.88236   -1.45801
       H    11.12173  -19.00022   -2.04100
       O    10.73602  -18.41718   -2.72082
      H1    11.41456  -18.35877   -3.40021

