6
frame 2 | Written by MDAnalysis XYZWriter (release 2.4.3)
       H    17.47555  -18.17404   16.39670
       O    18.03564  -18.93655   16.24266
      H1    17.40728  -19.64237   16.01284
       H    15.46625  -17.23774   16.13876
       O    15.93538  -17.13693   17.00244
      H1    15.59650  -16.33219   17.36432

