6
frame 2 | Written by MDAnalysis XYZWriter (release 2.4.3)
       H    16.01230    8.38782   -7.00148
       O    15.98260    9.30293   -7.34758
      H1    15.33205    9.76127   -6.81579
       H    18.65303   11.35344   -6.50163
       O    18.18587   11.21300   -7.33072
      H1    17.54983   10.49874   -7.18739

