6
frame 2 | Written by MDAnalysis XYZWriter (release 2.4.3)
       H     0.24051    6.75365    5.81787
       O    -0.07151    6.24108    6.61197
      H1     0.69500    6.25898    7.20413
       H    -2.07682    7.01491    8.59364
       O    -2.23814    7.03682    7.64068
      H1    -1.46542    6.61628    7.24751

