6
frame 2 | Written by MDAnalysis XYZWriter (release 2.4.3)
       H    -0.53940    7.35505   10.23818
       O    -1.41421    6.89398   10.19584
      H1    -2.08642    7.33242   10.66328
       H    -3.49914    8.30278   11.97981
       O    -3.69298    7.86068   11.15583
      H1    -3.89857    6.93075   11.40092

