6
frame 2 | Written by MDAnalysis XYZWriter (release 2.4.3)
       H    -4.35826  -15.89608    9.95618
       O    -3.84705  -15.02274    9.99023
      H1    -2.87307  -15.17392   10.02929
       H    -0.01572  -15.91049   10.47069
       O    -0.82451  -15.53950   10.82672
      H1    -0.78186  -14.58858   10.83918

