6
frame 3 | Written by MDAnalysis XYZWriter (release 2.4.3)
       H    -3.23139   19.70214   -6.50373
       O    -3.47613   18.77171   -6.72070
      H1    -4.32391   18.63388   -6.26005
       H    -3.76922   20.02431   -9.61566
       O    -3.42913   19.12584   -9.40636
      H1    -3.56934   19.12932   -8.43532

