6
frame 3 | Written by MDAnalysis XYZWriter (release 2.4.3)
       H     1.36387  -10.59297    9.12776
       O     0.53900  -10.91232    8.83693
      H1     0.67457  -11.29614    7.91913
       H    -2.03355   -9.15585    7.38148
       O    -1.22826   -8.76017    7.73674
      H1    -0.68231   -9.49737    8.08711

