6
frame 3 | Written by MDAnalysis XYZWriter (release 2.4.3)
       H    18.17094  -12.31347    0.90915
       O    18.78708  -11.59786    0.68261
      H1    19.22725  -11.48309    1.53881
       H    17.96632  -11.56657    3.51844
       O    17.01110  -11.59785    3.39615
      H1    16.63390  -10.73950    3.62583

