6
frame 3 | Written by MDAnalysis XYZWriter (release 2.4.3)
       H   -15.43205   12.94608   18.10108
       O   -15.33136   12.07420   17.66240
      H1   -15.41756   11.41104   18.38188
       H   -14.82573   14.94786   18.98769
       O   -15.57706   14.41078   18.77231
      H1   -15.88269   14.70383   17.89848

