6
frame 3 | Written by MDAnalysis XYZWriter (release 2.4.3)
       H     5.61548   -1.57472    3.64967
       O     5.24170   -1.04850    2.99288
      H1     5.82570   -0.35457    2.63345
       H     6.49624    1.64268    1.43893
       O     6.70325    1.11083    2.16774
      H1     6.67595    1.64040    3.00518

