6
frame 3 | Written by MDAnalysis XYZWriter (release 2.4.3)
       H    -2.24135   15.17789    9.16039
       O    -2.49223   15.83749    8.47433
      H1    -2.16185   15.48090    7.70114
       H    -3.64364   17.60302    8.27602
       O    -4.42830   18.11548    8.31907
      H1    -4.52069   18.54769    7.44114

