6
frame 3 | Written by MDAnalysis XYZWriter (release 2.4.3)
       H     3.33199  -17.03476  -16.71444
       O     4.27126  -17.34143  -16.82435
      H1     4.44074  -18.13965  -16.28401
       H     5.43477  -19.78687  -18.84174
       O     4.59532  -19.34980  -19.03567
      H1     4.57846  -18.51552  -18.61478

