6
frame 3 | Written by MDAnalysis XYZWriter (release 2.4.3)
       H     3.08194  -19.10302  -12.20274
       O     2.17614  -18.83152  -12.37321
      H1     2.27726  -17.89412  -12.63069
       H     1.33602  -18.39210  -10.23258
       O     0.41652  -18.19377  -10.28028
      H1    -0.08514  -18.93606  -10.68319

