6
frame 3 | Written by MDAnalysis XYZWriter (release 2.4.3)
       H    14.04137    9.23000   -2.94385
       O    14.80102    8.65427   -2.93455
      H1    14.71373    8.16736   -2.09258
       H    14.93214    6.28145   -5.50875
       O    14.31050    6.94609   -5.09829
      H1    14.69553    7.29877   -4.31259

