6
frame 3 | Written by MDAnalysis XYZWriter (release 2.4.3)
       H    -7.86407    2.68015   14.98576
       O    -6.95147    3.13674   15.12150
      H1    -7.00992    3.79721   14.33706
       H   -10.05087    1.97981   15.04607
       O    -9.19715    1.54364   15.19684
      H1    -9.18527    1.22884   16.14467

