6
frame 0 | Written by MDAnalysis XYZWriter (release 2.4.3)
       H    15.54599    0.40677   17.43629
       O    16.20891    0.47986   16.71355
      H1    16.20479   -0.38238   16.25201
       H    15.40998    0.93835   15.21335
       O    14.61548    1.37465   14.80575
      H1    14.02042    0.68952   14.47026

