6
frame 3 | Written by MDAnalysis XYZWriter (release 2.4.3)
       H    -3.21781    1.53048    3.60821
       O    -3.45914    2.28919    3.02987
      H1    -4.19634    2.07847    2.44507
       H    -4.79740    1.81949    5.68992
       O    -5.33663    1.74406    4.87858
      H1    -4.69931    2.12585    4.27298

