6
frame 4 | Written by MDAnalysis XYZWriter (release 2.4.3)
       H     5.95863   14.85938  -10.57019
       O     5.46108   14.12880  -11.03735
      H1     4.53061   14.28146  -10.94102
       H     2.26817   13.74794  -11.43604
       O     2.75694   14.44392  -10.99208
      H1     2.40366   15.26244  -11.31204

