6
frame 4 | Written by MDAnalysis XYZWriter (release 2.4.3)
       H    -1.09583  -14.20252   13.99877
       O    -0.39504  -14.72277   13.56305
      H1    -0.62240  -14.74518   12.64419
       H     2.05034  -13.77470   14.68831
       O     1.32194  -13.94681   15.32899
      H1     0.63383  -14.30126   14.67833

