6
frame 4 | Written by MDAnalysis XYZWriter (release 2.4.3)
       H   -16.21501    7.77554   10.25555
       O   -15.40171    8.19406    9.90765
      H1   -15.04953    8.67891   10.66060
       H   -14.03935   10.73589   11.60753
       O   -13.64376   10.47737   10.75592
      H1   -14.18568   10.91664   10.11761

