6
frame 4 | Written by MDAnalysis XYZWriter (release 2.4.3)
       H   -16.28709   10.43984  -18.41037
       O   -16.82590   10.36519  -17.61752
      H1   -16.72858    9.52128  -17.21171
       H   -17.80198    7.89021  -15.96526
       O   -16.82560    8.04022  -16.04363
      H1   -16.55621    8.39847  -15.23122

