6
frame 4 | Written by MDAnalysis XYZWriter (release 2.4.3)
       H   -17.03057    8.49748   -4.64792
       O   -17.57480    9.18402   -4.21303
      H1   -17.39723    9.16354   -3.22399
       H   -18.39464    8.76067   -1.14072
       O   -17.47664    8.90896   -1.50644
      H1   -17.22148    9.73127   -1.14287

