6
frame 4 | Written by MDAnalysis XYZWriter (release 2.4.3)
       H    10.61895    6.07177   16.56341
       O     9.76943    6.41417   16.22238
      H1     9.22939    5.60677   16.06790
       H     7.88881    6.67862   15.29993
       O     6.94866    6.58486   15.50357
      H1     6.66386    5.83988   14.99117

