6
frame 0 | Written by MDAnalysis XYZWriter (release 2.4.3)
       H    -0.49977    5.96280   -2.23598
       O    -0.33656    4.98821   -2.08448
      H1    -0.84382    4.82150   -1.23038
       H    -0.23140    3.68526   -4.93331
       O    -1.12073    3.74995   -4.53453
      H1    -0.88441    4.21190   -3.67906

