6
frame 4 | Written by MDAnalysis XYZWriter (release 2.4.3)
       H   -18.69963    6.01049   15.62722
       O   -17.88467    5.46841   15.67254
      H1   -17.93186    5.04830   14.77333
       H   -17.67380    2.85174   14.10031
       O   -17.93115    3.59687   13.55025
      H1   -17.31545    3.53432   12.75315

