6
frame 4 | Written by MDAnalysis XYZWriter (release 2.4.3)
       H   -10.11915  -11.56064  -18.50591
       O   -10.79287  -11.77341  -19.11929
      H1   -10.47446  -11.25541  -19.87726
       H   -12.90082   -9.45117  -17.51511
       O   -11.98686   -9.60359  -17.87658
      H1   -12.13824  -10.42124  -18.31445

