6
frame 4 | Written by MDAnalysis XYZWriter (release 2.4.3)
       H   -19.50344    8.67328  -18.18286
       O   -19.32119    9.39505  -18.81514
      H1   -18.42974    9.70883  -18.56813
       H   -17.80198    7.89021  -15.96526
       O   -16.82560    8.04022  -16.04363
      H1   -16.55621    8.39847  -15.23122

