6
frame 4 | Written by MDAnalysis XYZWriter (release 2.4.3)
       H     1.67646    5.70468   -9.98307
       O     1.00869    5.39803  -10.60421
      H1     1.43797    5.51519  -11.49343
       H     3.07291    5.17738   -8.45598
       O     2.62543    6.05242   -8.41947
      H1     1.80232    5.96585   -7.92548

