6
frame 4 | Written by MDAnalysis XYZWriter (release 2.4.3)
       H    11.76332  -17.76150   12.21086
       O    12.49064  -17.95107   11.58105
      H1    12.16049  -17.86198   10.66021
       H    13.39792  -16.57323   11.92432
       O    14.06495  -15.90254   12.05057
      H1    13.56167  -15.06779   12.40229

