6
frame 4 | Written by MDAnalysis XYZWriter (release 2.4.3)
       H    -4.52798   -8.19573   11.55467
       O    -4.94417   -7.41416   11.30448
      H1    -4.65348   -7.40366   10.39601
       H    -3.21347   -8.71006    9.36439
       O    -3.99799   -9.28388    9.25183
      H1    -3.91439   -9.63198    8.37098

