6
frame 4 | Written by MDAnalysis XYZWriter (release 2.4.3)
       H     7.62356   12.54149   -2.20755
       O     6.71478   12.23262   -2.22768
      H1     6.81028   11.42663   -2.73000
       H     4.21859   12.69966   -3.73977
       O     5.06482   12.84511   -4.21372
      H1     5.75238   12.59780   -3.59837

