6
frame 4 | Written by MDAnalysis XYZWriter (release 2.4.3)
       H   -18.43295  -19.27479   -7.30001
       O   -18.57028  -18.46285   -7.86494
      H1   -17.89728  -17.84517   -7.49740
       H   -19.07073  -18.75694  -10.94159
       O   -18.24201  -18.31982  -10.78349
      H1   -18.22688  -18.46068   -9.76982

