6
frame 0 | Written by MDAnalysis XYZWriter (release 2.4.3)
       H     3.36463   -5.49331  -18.55846
       O     3.70787   -6.15764  -19.15086
      H1     3.60298   -5.65958  -19.95940
       H     5.57283   -5.79211  -18.57227
       O     6.39857   -5.77481  -18.06916
      H1     7.05590   -5.29781  -18.56623

