6
frame 4 | Written by MDAnalysis XYZWriter (release 2.4.3)
       H    10.68698   -5.88426   -9.93165
       O    10.82061   -6.18868   -9.01388
      H1    11.37060   -6.98928   -8.89336
       H    12.00584   -4.80602   -9.30166
       O    12.45963   -4.03318   -9.68703
      H1    13.26469   -3.80356   -9.10745

