6
frame 4 | Written by MDAnalysis XYZWriter (release 2.4.3)
       H    -3.82084    9.74904   -9.13797
       O    -4.60215   10.24503   -8.80459
      H1    -4.23486   11.12871   -8.58590
       H    -1.72601    8.94623   -9.55482
       O    -2.53367    9.20956   -9.98447
      H1    -2.25115    9.87858  -10.64082

