6
frame 5 | Written by MDAnalysis XYZWriter (release 2.4.3)
       H     7.91460    3.94624  -15.91817
       O     8.64503    3.29933  -15.86237
      H1     8.21594    2.44409  -15.74654
       H    10.06647    5.18249  -18.36528
       O     9.36951    4.71910  -17.92044
      H1     9.72968    4.38604  -17.09460

