6
frame 5 | Written by MDAnalysis XYZWriter (release 2.4.3)
       H    11.99575   -0.42491   10.70862
       O    11.80236    0.48889   10.95451
      H1    11.07687    0.60734   11.56355
       H    11.59198   -2.39180    9.79922
       O    12.40410   -1.89757   10.07189
      H1    13.17971   -1.97451    9.47446

