6
frame 5 | Written by MDAnalysis XYZWriter (release 2.4.3)
       H   -14.96652  -12.23671   12.67412
       O   -14.95975  -11.36801   12.25087
      H1   -15.79066  -11.28752   11.75487
       H   -14.26749  -10.19697   13.57000
       O   -14.09780   -9.71679   14.40735
      H1   -13.77197   -8.86536   14.02437

