6
frame 5 | Written by MDAnalysis XYZWriter (release 2.4.3)
       H     0.48890  -19.08472  -16.59151
       O     1.34272  -18.77030  -16.44176
      H1     1.72852  -19.28713  -15.73777
       H    -1.65873  -20.11122  -16.84464
       O    -1.36945  -19.31775  -17.36952
      H1    -2.08898  -19.26545  -17.99479

