6
frame 5 | Written by MDAnalysis XYZWriter (release 2.4.3)
       H    -7.02955   -5.56694  -20.33515
       O    -7.51036   -5.36453  -19.53151
      H1    -6.98845   -5.82325  -18.84690
       H    -7.62161   -2.97944  -17.49971
       O    -7.93533   -2.82056  -18.39976
      H1    -7.90727   -3.71838  -18.79828

