6
frame 5 | Written by MDAnalysis XYZWriter (release 2.4.3)
       H    16.74407    2.78861   -0.40843
       O    16.26136    3.14252   -1.18932
      H1    16.89281    3.01851   -1.92765
       H    14.01966    3.88639   -1.81249
       O    13.33206    4.50330   -1.63239
      H1    13.43563    4.56409   -0.70428

