6
frame 5 | Written by MDAnalysis XYZWriter (release 2.4.3)
       H    -7.62161   -2.97944  -17.49971
       O    -7.93533   -2.82056  -18.39976
      H1    -7.90727   -3.71838  -18.79828
       H    -9.51470   -2.21393  -18.45901
       O   -10.24229   -1.60248  -18.49996
      H1   -10.81245   -1.91143  -19.22449

