6
frame 5 | Written by MDAnalysis XYZWriter (release 2.4.3)
       H    -8.90458   17.65869   15.99308
       O    -9.68989   17.22216   15.53668
      H1    -9.76788   17.67275   14.66566
       H    -6.73368   17.18656   16.48804
       O    -7.31756   17.79932   16.96061
      H1    -6.73847   18.48735   17.23348

