6
frame 5 | Written by MDAnalysis XYZWriter (release 2.4.3)
       H     8.38510   19.78660  -14.68786
       O     8.86236   19.20203  -14.08030
      H1     9.82259   19.33981  -14.02439
       H    11.82409   19.54060  -14.53036
       O    11.56775   19.24799  -13.64267
      H1    11.75446   18.28303  -13.72878

