6
frame 5 | Written by MDAnalysis XYZWriter (release 2.4.3)
       H   -19.04280   -2.26991   15.37954
       O   -18.42170   -3.01501   15.39641
      H1   -18.56088   -3.55236   16.23956
       H   -19.46416   -5.32722   17.57791
       O   -18.83263   -4.57040   17.59477
      H1   -18.70747   -4.48801   18.56812

