6
frame 5 | Written by MDAnalysis XYZWriter (release 2.4.3)
       H    14.71345    2.86840    7.78981
       O    15.20662    3.57373    7.33679
      H1    14.78026    4.39920    7.58417
       H    13.23001    6.07396    8.27230
       O    14.21217    6.03289    8.20104
      H1    14.55311    6.10527    9.08301

