6
frame 5 | Written by MDAnalysis XYZWriter (release 2.4.3)
       H     6.13594    5.01849    5.22546
       O     5.55864    4.38265    5.69238
      H1     5.82359    4.67233    6.58177
       H     6.86911    6.21622    7.73825
       O     6.30065    5.47675    8.06518
      H1     5.49153    5.85948    8.44946

