6
frame 5 | Written by MDAnalysis XYZWriter (release 2.4.3)
       H    -2.51113   16.36984    8.56986
       O    -1.58013   16.53399    8.18814
      H1    -1.49010   15.81357    7.51729
       H    -0.73514   18.11195    5.81785
       O    -1.16632   18.59879    6.48478
      H1    -1.43263   17.82375    7.03291

