6
frame 5 | Written by MDAnalysis XYZWriter (release 2.4.3)
       H    19.64446    0.52489   10.65751
       O    18.81996    0.57083   11.20155
      H1    18.78013    1.46333   11.54840
       H    18.42080    2.59048   14.03686
       O    18.83946    2.84288   13.16752
      H1    19.75025    3.11363   13.43039

