6
frame 0 | Written by MDAnalysis XYZWriter (release 2.4.3)
       H    -0.05430  -10.13620  -11.38171
       O     0.50589   -9.86368  -12.13776
      H1     1.24152  -10.43021  -11.97291
       H    -0.54037   -8.58141  -11.58172
       O    -1.30112   -8.17704  -11.06502
      H1    -1.72357   -7.47348  -11.68501

