6
frame 5 | Written by MDAnalysis XYZWriter (release 2.4.3)
       H     8.84468   -1.81453   -1.17349
       O     8.45186   -2.24622   -1.93012
      H1     9.05374   -3.03673   -2.01507
       H     6.72574   -2.47790    1.00411
       O     6.82376   -3.10244    0.30066
      H1     7.22884   -2.65459   -0.46478

