6
frame 5 | Written by MDAnalysis XYZWriter (release 2.4.3)
       H   -15.05372    4.12879   18.55277
       O   -14.24163    3.48588   18.57486
      H1   -13.61995    3.93098   17.96312
       H   -11.80045    3.78115   16.56164
       O   -12.17737    4.52927   17.07479
      H1   -11.87544    4.36927   17.95214

