6
frame 0 | Written by MDAnalysis XYZWriter (release 2.4.3)
       H    -8.52654  -17.15424  -17.26336
       O    -8.63780  -16.56558  -16.48521
      H1    -7.91336  -16.68858  -15.86222
       H    -8.68056  -18.82923  -19.53248
       O    -8.81553  -18.85151  -18.57473
      H1    -9.73929  -19.05544  -18.41485

