6
frame 6 | Written by MDAnalysis XYZWriter (release 2.4.3)
       H    13.37719  -16.79098   -8.73444
       O    12.49809  -17.13869   -8.94904
      H1    11.98297  -16.88640   -8.21228
       H    15.33576  -16.65623   -9.98206
       O    15.11348  -16.89996   -9.07566
      H1    15.43030  -17.80659   -8.96907

