6
frame 6 | Written by MDAnalysis XYZWriter (release 2.4.3)
       H    12.76995   -8.72154    6.31703
       O    13.38089   -9.56414    6.35082
      H1    14.25812   -9.19078    6.26258
       H    11.16415   -6.86919    6.91480
       O    11.75191   -7.29755    6.27293
      H1    12.42653   -6.69677    6.05384

