6
frame 0 | Written by MDAnalysis XYZWriter (release 2.4.3)
       H     5.39929   16.43722   19.22604
       O     5.00098   17.30795   19.41680
      H1     5.79203   17.81980   19.67391
       H     6.93686   14.30776   17.77825
       O     6.53682   14.88826   18.42002
      H1     6.75014   14.61254   19.29861

