6
frame 6 | Written by MDAnalysis XYZWriter (release 2.4.3)
       H     1.41965  -11.46089   -6.82400
       O     1.11472  -12.12027   -7.45278
      H1     0.67028  -12.78092   -6.87190
       H    -0.30330  -11.39962  -10.37309
       O    -0.45444  -12.14963   -9.77972
      H1     0.18212  -12.07916   -9.04302

