6
frame 0 | Written by MDAnalysis XYZWriter (release 2.4.3)
       H    14.13304   18.11029  -19.47849
       O    15.03278   17.65910  -19.32504
      H1    15.01581   17.57864  -18.33034
       H    15.15872   18.21401  -15.71723
       O    14.72323   17.86240  -16.49299
      H1    14.06565   17.28312  -16.10014

