6
frame 6 | Written by MDAnalysis XYZWriter (release 2.4.3)
       H    -8.49024   -1.82882   16.26767
       O    -8.91445   -2.37329   15.64654
      H1    -8.56233   -1.91334   14.89568
       H    -8.35525   -4.75344   15.65734
       O    -7.90914   -5.48650   16.17537
      H1    -7.27946   -5.82536   15.56223

