6
frame 6 | Written by MDAnalysis XYZWriter (release 2.4.3)
       H    14.59082   -7.87719   14.51150
       O    13.97059   -8.07714   13.82283
      H1    13.18909   -7.46283   13.80219
       H    14.05520   -6.74804   12.66387
       O    14.23614   -6.16663   11.87166
      H1    14.03937   -5.26321   12.23307

