6
frame 6 | Written by MDAnalysis XYZWriter (release 2.4.3)
       H    16.68433  -14.22879   17.24405
       O    16.79806  -15.00595   16.72827
      H1    17.62564  -15.40336   17.06678
       H    19.05560  -17.26310   16.75589
       O    18.93806  -16.57317   17.48071
      H1    18.76790  -17.05997   18.29535

