6
frame 6 | Written by MDAnalysis XYZWriter (release 2.4.3)
       H    14.46838    9.63796   -8.22621
       O    14.88927    9.25609   -9.03002
      H1    14.28127    9.58204   -9.67798
       H    14.51307    7.36636   -8.57487
       O    13.96373    6.55410   -8.77354
      H1    14.51140    5.95131   -9.26025

