6
frame 6 | Written by MDAnalysis XYZWriter (release 2.4.3)
       H    18.89189  -12.43361    7.13231
       O    18.61858  -13.03824    7.86208
      H1    19.34903  -13.51224    8.25563
       H    18.32275  -11.19608   10.48711
       O    17.57604  -11.78163   10.20990
      H1    17.82914  -12.04952    9.33717

