6
frame 6 | Written by MDAnalysis XYZWriter (release 2.4.3)
       H   -17.53912   -4.96509    4.41694
       O   -17.58944   -4.05154    4.21755
      H1   -16.69191   -3.92581    3.82063
       H   -16.99722   -1.32039    5.08127
       O   -16.80978   -1.98414    5.78062
      H1   -17.20165   -2.81814    5.44954

