6
frame 6 | Written by MDAnalysis XYZWriter (release 2.4.3)
       H    -9.90120   -6.04544   -5.16415
       O    -9.80316   -5.62387   -4.32223
      H1   -10.69709   -5.14375   -4.24168
       H    -8.69577   -8.74970   -3.49360
       O    -9.28523   -8.06438   -3.11289
      H1    -9.31594   -7.35489   -3.74212

