6
frame 6 | Written by MDAnalysis XYZWriter (release 2.4.3)
       H    16.43750  -16.06012   13.85770
       O    17.18006  -16.32679   13.28367
      H1    17.91887  -16.64952   13.78468
       H    17.07444  -14.24081   10.80151
       O    17.07993  -15.16951   10.66856
      H1    17.15000  -15.63543   11.47201

