6
frame 6 | Written by MDAnalysis XYZWriter (release 2.4.3)
       H   -11.37299  -13.86530   13.20389
       O   -11.74543  -14.44415   12.55842
      H1   -12.69126  -14.32402   12.51386
       H   -10.20334  -14.39114    9.71733
       O   -10.36969  -13.56248   10.22479
      H1   -10.80404  -13.89329   11.02446

