6
frame 0 | Written by MDAnalysis XYZWriter (release 2.4.3)
       H   -11.84301  -14.07578   16.67757
       O   -11.25358  -13.72363   17.38093
      H1   -11.52638  -12.80841   17.67661
       H   -13.14472  -14.08904   14.95154
       O   -12.62645  -14.79503   15.25623
      H1   -12.04394  -15.00584   14.50504

