6
frame 7 | Written by MDAnalysis XYZWriter (release 2.4.3)
       H    11.08951   17.55421    9.45713
       O    11.17654   17.89134    8.53112
      H1    10.24024   17.88796    8.20442
       H    11.30257   16.99651    6.95136
       O    11.06474   16.56674    6.14414
      H1    10.27773   16.08100    6.29683

