6
frame 6 | Written by MDAnalysis XYZWriter (release 2.4.3)
       H   -13.78847   14.97888   17.32045
       O   -14.42082   15.14018   16.59536
      H1   -14.38969   16.14204   16.50545
       H   -13.15019   13.97809   13.84189
       O   -13.60898   14.84691   13.94212
      H1   -13.79831   14.79674   14.90270

