6
frame 7 | Written by MDAnalysis XYZWriter (release 2.4.3)
       H    17.27065   12.32665   17.98997
       O    16.46355   11.82558   17.82983
      H1    16.31911   11.99880   16.87490
       H    16.60522   11.51225   14.91489
       O    15.87023   11.99052   15.27158
      H1    16.01089   12.91205   15.03679

