6
frame 7 | Written by MDAnalysis XYZWriter (release 2.4.3)
       H   -19.21010  -12.80142   -9.66375
       O   -19.49821  -13.38995  -10.33055
      H1   -19.78798  -14.06522   -9.73012
       H   -19.64619  -10.79949   -8.23159
       O   -18.79728  -11.28009   -8.06488
      H1   -19.02760  -11.76116   -7.29505

