6
frame 7 | Written by MDAnalysis XYZWriter (release 2.4.3)
       H   -18.84276  -18.28995   -9.71784
       O   -18.11528  -18.78294  -10.08749
      H1   -17.48642  -18.10827  -10.35543
       H   -14.73442  -17.70521   -9.93916
       O   -15.60087  -17.38210  -10.22510
      H1   -15.54517  -17.56716  -11.17667

