6
frame 7 | Written by MDAnalysis XYZWriter (release 2.4.3)
       H     4.25196   18.91889   10.07745
       O     4.90091   19.51785    9.70020
      H1     5.39174   19.87422   10.43886
       H     2.27182   16.22756    9.95935
       O     2.87707   16.79643    9.47576
      H1     3.01492   16.54364    8.51903

