6
frame 7 | Written by MDAnalysis XYZWriter (release 2.4.3)
       H   -16.99888   15.69492  -13.28707
       O   -17.28748   15.75717  -14.18515
      H1   -17.94937   16.47422  -14.26342
       H   -18.94674   17.37611  -16.01243
       O   -18.50237   17.84803  -15.33836
      H1   -17.67586   18.20421  -15.68001

