6
frame 0 | Written by MDAnalysis XYZWriter (release 2.4.3)
       H     6.49076  -16.40067  -11.07166
       O     5.57272  -16.58302  -10.99427
      H1     5.12184  -16.21801  -11.76932
       H     4.97588  -15.90403   -9.18897
       O     4.69240  -15.58708   -8.31362
      H1     5.51860  -15.22259   -8.05386

