6
frame 7 | Written by MDAnalysis XYZWriter (release 2.4.3)
       H    -5.84375   16.95057  -16.93080
       O    -6.66641   17.29411  -16.56314
      H1    -7.17043   17.55017  -17.31661
       H    -8.09753   15.81814  -15.64594
       O    -8.01965   14.97426  -15.11099
      H1    -7.13160   14.85933  -14.76825

