6
frame 7 | Written by MDAnalysis XYZWriter (release 2.4.3)
       H    14.22080  -11.77002   -7.34628
       O    14.57833  -11.07743   -6.72567
      H1    15.53319  -11.11276   -6.90226
       H    13.56798  -13.42126   -7.52315
       O    13.39351  -13.00876   -8.44030
      H1    14.09235  -13.30408   -9.06629

