6
frame 7 | Written by MDAnalysis XYZWriter (release 2.4.3)
       H    10.02453    9.75312    0.87640
       O     9.76207    9.84640   -0.06921
      H1     9.54106    8.96196   -0.37758
       H     8.24811    6.96759   -1.44055
       O     9.04345    7.16261   -0.89307
      H1     8.83802    6.58796   -0.14579

