6
frame 0 | Written by MDAnalysis XYZWriter (release 2.4.3)
       H    12.05520   17.46901  -15.40269
       O    12.14002   16.56281  -15.80594
      H1    11.28969   16.14033  -15.52860
       H    12.99131   18.45965  -13.94402
       O    12.68092   19.11955  -14.51981
      H1    11.71175   19.11112  -14.38769

