6
frame 7 | Written by MDAnalysis XYZWriter (release 2.4.3)
       H   -10.68777    6.29160   13.55947
       O   -10.99801    6.35731   14.52738
      H1   -11.52728    7.15047   14.57481
       H    -9.98697    7.31183   17.08458
       O    -9.40725    6.56197   16.80255
      H1    -9.82583    6.31785   15.95429

