6
frame 7 | Written by MDAnalysis XYZWriter (release 2.4.3)
       H    -4.24123  -17.55638   -3.56299
       O    -3.51827  -17.99766   -3.95733
      H1    -3.17521  -17.50121   -4.71295
       H    -2.80568  -16.31769   -6.41464
       O    -2.11127  -16.47659   -5.81065
      H1    -1.45553  -16.91871   -6.31766

