6
frame 7 | Written by MDAnalysis XYZWriter (release 2.4.3)
       H    -0.80622    8.80820    9.56634
       O    -1.58964    9.38477    9.35058
      H1    -2.24624    8.66808    9.32432
       H    -1.14414   11.41884    9.90930
       O    -0.54921   12.15548   10.04527
      H1    -0.74960   12.74304    9.26255

