6
frame 7 | Written by MDAnalysis XYZWriter (release 2.4.3)
       H     0.22219  -18.03371  -15.56083
       O     1.07603  -18.41949  -15.49779
      H1     1.00409  -19.09777  -14.88043
       H    -1.59476  -18.29268  -15.78585
       O    -1.68907  -17.52856  -16.38052
      H1    -2.34472  -17.83734  -17.01518

