6
frame 7 | Written by MDAnalysis XYZWriter (release 2.4.3)
       H    -7.19440    0.52180  -11.09392
       O    -7.63144   -0.33252  -11.05248
      H1    -8.55238   -0.05157  -10.98000
       H    -5.80218   -0.13519   -9.55280
       O    -4.89983    0.05237   -9.85545
      H1    -4.71360   -0.65401  -10.42633

