6
frame 7 | Written by MDAnalysis XYZWriter (release 2.4.3)
       H    17.47634  -17.09263  -18.31239
       O    16.82302  -17.67522  -18.66976
      H1    16.39091  -18.12028  -17.93923
       H    19.66512  -15.07091  -18.02319
       O    18.84067  -15.43337  -18.30611
      H1    18.10418  -14.80085  -18.27650

