6
frame 0 | Written by MDAnalysis XYZWriter (release 2.4.3)
       H   -16.67853  -18.23635   -8.04713
       O   -17.51201  -17.85238   -7.78979
      H1   -17.41916  -16.93532   -8.02985
       H   -14.62309  -18.92965   -7.86835
       O   -15.36758  -19.42999   -7.73593
      H1   -15.65042  -19.29818   -6.77817

