6
frame 8 | Written by MDAnalysis XYZWriter (release 2.4.3)
       H    18.90959   -6.98404   -9.52191
       O    17.96408   -6.90822   -9.52189
      H1    17.77051   -7.50173  -10.23853
       H    16.74424   -5.93391   -8.81589
       O    16.30093   -5.33245   -8.17795
      H1    15.36094   -5.39547   -8.23373

