6
frame 8 | Written by MDAnalysis XYZWriter (release 2.4.3)
       H     8.57324   14.80759    0.01792
       O     8.12312   14.04839   -0.39606
      H1     8.62075   13.25938   -0.16962
       H     5.34254   14.66031    0.67801
       O     5.46870   14.45916   -0.25790
      H1     6.39392   14.16002   -0.23155

