6
frame 0 | Written by MDAnalysis XYZWriter (release 2.4.3)
       H    18.30556    4.49729   -2.39316
       O    18.39017    5.30712   -1.93620
      H1    18.32891    6.03818   -2.55002
       H    17.42397    5.46230    1.11378
       O    17.89748    6.09797    0.55559
      H1    18.20377    5.56234   -0.25057

