6
frame 8 | Written by MDAnalysis XYZWriter (release 2.4.3)
       H   -16.61040   -7.42508   18.25689
       O   -17.26100   -7.73066   17.56074
      H1   -16.81058   -8.45217   17.08818
       H   -17.01029   -6.64166   16.26677
       O   -16.54801   -6.07838   15.64269
      H1   -16.91250   -5.15975   15.78946

