6
frame 8 | Written by MDAnalysis XYZWriter (release 2.4.3)
       H     3.53339    3.23873  -17.52332
       O     4.37967    3.57063  -17.84393
      H1     4.10362    4.22441  -18.47122
       H     3.24322    1.72222  -15.66332
       O     2.66580    1.23171  -16.26632
      H1     3.19256    0.69067  -16.84835

