6
frame 8 | Written by MDAnalysis XYZWriter (release 2.4.3)
       H    -6.42628   -7.37294   19.10443
       O    -6.71750   -8.26838   18.78539
      H1    -6.74580   -8.19174   17.83647
       H    -6.28653   -9.60210   16.10013
       O    -6.93170   -8.90376   15.93150
      H1    -7.79140   -9.27658   15.86011

