6
frame 0 | Written by MDAnalysis XYZWriter (release 2.4.3)
       H   -17.63458    0.61431   10.19123
       O   -18.37158    0.87763   10.77855
      H1   -18.28089    1.76758   11.08548
       H   -15.47468    0.78767   12.29395
       O   -16.06274    0.04540   12.59154
      H1   -16.92169    0.28954   12.33218

