6
frame 8 | Written by MDAnalysis XYZWriter (release 2.4.3)
       H   -19.76085   -9.35837    3.69184
       O   -19.12259   -9.81565    4.23749
      H1   -19.54122  -10.08228    5.05273
       H   -18.71945   -9.58671    2.00196
       O   -19.07115   -9.00640    1.28507
      H1   -19.90450   -9.43307    0.98653

