6
frame 8 | Written by MDAnalysis XYZWriter (release 2.4.3)
       H    -1.28286  -16.67817   18.80646
       O    -2.16169  -16.95720   18.47495
      H1    -2.75751  -16.21773   18.36735
       H     0.57303  -16.37149   20.16282
       O     0.15220  -15.92307   19.44370
      H1     0.89958  -15.81765   18.83537

