6
frame 8 | Written by MDAnalysis XYZWriter (release 2.4.3)
       H     9.54094   13.03486   15.27523
       O     8.72351   13.29476   14.88905
      H1     8.00819   12.91321   15.40779
       H     9.06618   12.48400   12.99143
       O     9.24230   12.00422   12.20891
      H1     9.92363   11.40996   12.35783

