6
frame 8 | Written by MDAnalysis XYZWriter (release 2.4.3)
       H    18.38872  -18.34168  -18.99912
       O    18.50990  -18.99924  -19.71874
      H1    19.47724  -18.95656  -20.03753
       H    18.11725  -16.36673  -17.93162
       O    18.38343  -17.24241  -17.64865
      H1    19.26747  -17.11489  -17.22825

