6
frame 8 | Written by MDAnalysis XYZWriter (release 2.4.3)
       H   -14.27848  -11.07900  -16.32367
       O   -15.10061  -11.57145  -16.50345
      H1   -15.77265  -10.87486  -16.25776
       H   -14.88984  -12.86464  -15.33819
       O   -14.87544  -13.83135  -15.05479
      H1   -14.41886  -13.78724  -14.20212

