6
frame 8 | Written by MDAnalysis XYZWriter (release 2.4.3)
       H    -2.01665   -9.89026   -8.82319
       O    -1.22229  -10.22558   -8.42009
      H1    -1.47567  -10.08038   -7.44374
       H    -3.60018   -8.44907   -8.89815
       O    -3.66461   -9.40907   -9.10649
      H1    -3.85764   -9.89836   -8.29648

