6
frame 8 | Written by MDAnalysis XYZWriter (release 2.4.3)
       H   -10.69375    4.32686   -4.23483
       O    -9.89989    4.56878   -4.70983
      H1    -9.96057    5.51750   -4.77845
       H   -12.66166    3.00256   -4.80282
       O   -12.51138    3.61724   -4.06588
      H1   -13.29895    4.21118   -4.10521

