6
frame 8 | Written by MDAnalysis XYZWriter (release 2.4.3)
       H    13.66317    5.66943   15.62174
       O    13.46419    4.89151   16.22516
      H1    12.96535    4.26223   15.66789
       H    15.01430    2.59683   16.07967
       O    15.58320    3.22600   16.54740
      H1    14.94426    3.93998   16.65231

