6
frame 8 | Written by MDAnalysis XYZWriter (release 2.4.3)
       H   -13.36282   14.17176  -13.64447
       O   -14.25071   13.95899  -13.32469
      H1   -14.60871   13.47873  -14.07568
       H   -14.91666   12.75568  -16.25262
       O   -15.45356   12.60767  -15.43080
      H1   -16.40751   12.74541  -15.71315

