6
frame 8 | Written by MDAnalysis XYZWriter (release 2.4.3)
       H     4.38886   17.81910   -5.72000
       O     4.37766   17.61679   -4.76874
      H1     5.29272   17.78290   -4.52297
       H     3.20283   18.01709   -8.07691
       O     4.06664   18.00858   -7.68166
      H1     4.37958   18.94053   -7.74255

