6
frame 0 | Written by MDAnalysis XYZWriter (release 2.4.3)
       H   -10.27122    2.00856   -1.43669
       O   -10.81324    2.59111   -2.04004
      H1   -10.87694    2.17686   -2.93030
       H   -12.26953    1.38427   -1.54223
       O   -13.03001    0.77752   -1.54481
      H1   -12.73102   -0.08650   -1.55200

