6
frame 8 | Written by MDAnalysis XYZWriter (release 2.4.3)
       H    17.30253  -12.05691  -16.89033
       O    18.26396  -12.01712  -16.95140
      H1    18.45782  -11.22574  -16.33948
       H    18.28829  -11.80983  -18.93912
       O    18.19991  -11.81284  -19.91231
      H1    19.06771  -11.54524  -20.27061

