6
frame 8 | Written by MDAnalysis XYZWriter (release 2.4.3)
       H   -17.72367   -0.13296  -16.39309
       O   -17.91855   -0.95930  -15.93094
      H1   -17.11229   -1.50651  -16.16059
       H   -17.67556    2.23361  -16.51594
       O   -18.04245    1.57941  -17.18710
      H1   -17.45638    1.27169  -17.89249

