6
frame 0 | Written by MDAnalysis XYZWriter (release 2.4.3)
       H    -4.99902    4.13744    4.37597
       O    -4.20766    3.68857    4.71827
      H1    -3.60617    3.75577    3.96870
       H    -4.86749    6.06118    2.79382
       O    -5.59816    5.78410    3.43386
      H1    -5.73278    6.55631    3.98499

