6
frame 9 | Written by MDAnalysis XYZWriter (release 2.4.3)
       H    -2.25487   -8.97776    5.19120
       O    -2.05953   -8.89952    6.14905
      H1    -1.81593   -9.85804    6.41173
       H    -3.85900   -9.06169    6.50672
       O    -4.79169   -9.12360    6.76931
      H1    -5.37138   -8.66575    6.14421

