6
frame 0 | Written by MDAnalysis XYZWriter (release 2.4.3)
       H    16.78802  -16.11478   -5.67797
       O    17.03866  -16.96603   -5.28008
      H1    16.34927  -17.54731   -5.58216
       H    18.15840  -19.88273   -5.35703
       O    19.05110  -19.85221   -4.98911
      H1    19.17422  -18.86958   -4.81869

