6
frame 9 | Written by MDAnalysis XYZWriter (release 2.4.3)
       H   -17.61963  -13.81170   -9.21841
       O   -17.15702  -14.13959  -10.01812
      H1   -16.54443  -14.82927   -9.81921
       H   -17.82847  -15.55440   -7.26043
       O   -17.13891  -14.98777   -6.79591
      H1   -16.77729  -15.51937   -6.08102

