6
frame 9 | Written by MDAnalysis XYZWriter (release 2.4.3)
       H     8.53152    2.26259  -10.89481
       O     9.14138    2.12336  -11.59799
      H1     8.94966    2.78531  -12.26378
       H     7.03129    1.41500   -9.21246
       O     7.73899    2.06186   -9.29061
      H1     7.46060    2.81734   -8.72976

