6
frame 9 | Written by MDAnalysis XYZWriter (release 2.4.3)
       H   -12.87588    2.64200   18.88914
       O   -12.60765    1.71384   18.69348
      H1   -12.80828    1.29696   19.59248
       H   -13.87225    4.73068   18.83105
       O   -13.13729    4.26746   19.21719
      H1   -12.33278    4.62982   18.81682

