6
frame 9 | Written by MDAnalysis XYZWriter (release 2.4.3)
       H   -14.76777  -13.44750   -0.50881
       O   -15.20070  -13.83423   -1.29442
      H1   -15.97491  -14.20316   -0.88183
       H   -14.79443  -13.38512   -4.41478
       O   -14.29827  -14.04084   -3.84420
      H1   -14.58238  -13.99803   -2.90347

