6
frame 9 | Written by MDAnalysis XYZWriter (release 2.4.3)
       H    17.75788   10.66157   -8.50693
       O    18.14166   10.43999   -9.32454
      H1    17.49266    9.85897   -9.84102
       H    15.57342    8.65135  -10.28764
       O    16.33486    9.04078  -10.74963
      H1    16.05807    9.88254  -11.16073

