6
frame 0 | Written by MDAnalysis XYZWriter (release 2.4.3)
       H    15.83989   -2.37958  -17.31148
       O    15.03704   -2.31987  -16.73525
      H1    14.61131   -3.18436  -16.86030
       H    13.12173   -3.83781  -17.26965
       O    13.70470   -4.55109  -16.94898
      H1    13.57312   -4.58166  -15.99667

