6
frame 9 | Written by MDAnalysis XYZWriter (release 2.4.3)
       H   -16.27340   -5.75625   -7.73919
       O   -16.71570   -6.14092   -7.03384
      H1   -17.25711   -5.53844   -6.48724
       H   -17.69483   -8.41984   -4.89297
       O   -16.71689   -8.32740   -4.96845
      H1   -16.57518   -7.59270   -5.64448

