6
frame 9 | Written by MDAnalysis XYZWriter (release 2.4.3)
       H    14.26717  -18.51119   -6.74420
       O    13.42323  -19.04264   -6.90061
      H1    12.75258  -18.55018   -6.47367
       H    15.66286  -17.33363   -7.11022
       O    15.74587  -17.87513   -6.30769
      H1    16.42074  -18.47351   -6.59612

