6
frame 9 | Written by MDAnalysis XYZWriter (release 2.4.3)
       H     5.07543  -18.19708    3.17583
       O     5.13836  -18.91353    2.49488
      H1     4.70295  -18.60028    1.71364
       H     6.58857  -19.75087    5.13816
       O     6.72409  -18.96598    5.70017
      H1     7.71302  -18.74307    5.65351

