6
frame 9 | Written by MDAnalysis XYZWriter (release 2.4.3)
       H    -8.38946   -7.09335    0.41480
       O    -8.66537   -6.50915    1.11782
      H1    -7.90108   -6.25150    1.71398
       H    -8.14503   -7.74683   -1.50567
       O    -7.51687   -8.27821   -1.01309
      H1    -6.70607   -8.27261   -1.50361

