6
frame 9 | Written by MDAnalysis XYZWriter (release 2.4.3)
       H    -2.53013   12.68852    3.09237
       O    -2.82625   13.59586    3.09167
      H1    -3.77516   13.49490    2.84093
       H    -1.84438   11.23993    4.41144
       O    -1.19327   11.50234    3.75588
      H1    -0.95172   10.64262    3.30933

