6
frame 9 | Written by MDAnalysis XYZWriter (release 2.4.3)
       H    -4.55684  -17.90767   -3.63279
       O    -3.71987  -18.17190   -4.05384
      H1    -3.44315  -17.34260   -4.38973
       H    -3.05391  -15.97992   -5.80591
       O    -2.41561  -16.09233   -5.12563
      H1    -1.69386  -16.66487   -5.46734

