6
frame 9 | Written by MDAnalysis XYZWriter (release 2.4.3)
       H     4.41357   -5.41703  -18.15322
       O     5.08493   -5.95146  -18.55440
      H1     4.74560   -6.87561  -18.71560
       H     5.59305   -6.22401  -16.88473
       O     5.46764   -6.69752  -16.01483
      H1     5.37034   -5.99971  -15.31167

