6
frame 9 | Written by MDAnalysis XYZWriter (release 2.4.3)
       H    -8.85234   -4.78575   17.48487
       O    -8.09855   -5.32235   17.88227
      H1    -7.56323   -5.68782   17.18552
       H    -9.78391   -7.58975   19.63928
       O    -9.99324   -7.09036   18.83280
      H1    -9.16170   -6.58236   18.55984

