6
frame 9 | Written by MDAnalysis XYZWriter (release 2.4.3)
       H   -11.28644   18.40369  -10.31396
       O   -11.30399   18.53242  -11.28015
      H1   -10.54029   18.02913  -11.54154
       H   -12.47151   15.14689  -11.64984
       O   -12.06446   15.36438  -10.83654
      H1   -11.78634   16.31626  -11.07363

