6
frame 9 | Written by MDAnalysis XYZWriter (release 2.4.3)
       H    -9.05976    5.15636  -13.22636
       O    -9.17012    5.93934  -13.80053
      H1    -8.86246    5.71047  -14.67124
       H   -12.34658    6.81940  -14.57760
       O   -11.71985    6.11544  -14.79443
      H1   -10.92879    6.13917  -14.19608

