6
frame 0 | Written by MDAnalysis XYZWriter (release 2.4.3)
       H   -17.66813    9.20392   -5.94227
       O   -17.73197    9.76093   -5.15099
      H1   -17.64575    9.19060   -4.37402
       H   -18.06651    7.69342   -7.89161
       O   -17.43573    8.32540   -7.46188
      H1   -17.05327    8.78562   -8.22004

