6
frame 9 | Written by MDAnalysis XYZWriter (release 2.4.3)
       H    -8.69856   -1.20048   17.30109
       O    -8.57359   -1.67263   16.44635
      H1    -7.73407   -2.20281   16.61146
       H    -9.60916   -3.08295   16.36177
       O   -10.08457   -3.91868   16.57517
      H1   -10.43355   -4.14787   15.66084

