6
frame 9 | Written by MDAnalysis XYZWriter (release 2.4.3)
       H    10.38255   19.91263  -18.88488
       O     9.92918   19.19309  -18.50673
      H1    10.48212   18.45945  -18.72454
       H     8.04317   19.33186  -18.74660
       O     7.13871   19.68935  -18.75055
      H1     6.92318   19.50233  -19.69374

