6
frame 10 | Written by MDAnalysis XYZWriter (release 2.4.3)
       H    -4.77226  -17.76776  -16.63281
       O    -4.80701  -16.86418  -16.17004
      H1    -5.38804  -17.12486  -15.44221
       H    -6.20377  -15.79091  -19.06778
       O    -5.95889  -15.25311  -18.28590
      H1    -5.48349  -15.87718  -17.72583

