6
frame 10 | Written by MDAnalysis XYZWriter (release 2.4.3)
       H    -7.84246   16.06822   -3.70756
       O    -7.16060   15.72810   -3.07534
      H1    -7.09613   14.80166   -3.28319
       H    -8.54668   17.03123   -5.47056
       O    -8.99193   16.92368   -4.59479
      H1    -8.71050   17.76790   -4.14471

