6
frame 10 | Written by MDAnalysis XYZWriter (release 2.4.3)
       H    15.69558   -1.46994   -3.80767
       O    15.94405   -0.79305   -3.11032
      H1    15.13495   -0.64684   -2.63588
       H    18.22657   -2.15041   -1.85072
       O    17.47296   -2.70061   -1.97962
      H1    16.99581   -2.10633   -2.55601

