72
frame 1 | Written by MDAnalysis XYZWriter (release 2.4.3)
       H    17.61649  -11.89281  -16.79059
       O    18.58355  -12.04229  -16.59976
      H1    18.64289  -11.26560  -16.03101
       H    10.41884  -15.62806  -17.48355
       O    10.76867  -14.95923  -16.88512
      H1    10.75951  -14.11269  -17.39662
       H    12.20618  -17.23297  -14.74049
       O    12.55477  -16.48730  -15.22928
      H1    11.92583  -15.72497  -14.96494
       H     8.50593  -18.77087  -16.26493
       O     9.42702  -18.76608  -16.58665
      H1     9.80523  -18.10935  -15.96349
       H    15.63324  -14.77737  -15.55293
       O    15.57882  -13.91989  -15.17998
      H1    15.34201  -14.09889  -14.24865
       H    10.92175  -12.24520  -17.53854
       O    10.65414  -12.78102  -18.31070
      H1     9.70826  -12.65471  -18.34876
       H    14.43331  -16.89301  -15.26848
       O    15.35483  -16.75246  -15.42716
      H1    15.84206  -17.55454  -15.10315
       H    18.77010  -13.18744  -15.27579
       O    18.95412  -13.80547  -14.53487
      H1    19.78881  -13.48443  -14.14093
       H    14.05746  -12.74635  -13.43944
       O    14.33597  -13.08097  -12.55754
      H1    15.30382  -12.91029  -12.46542
       H    18.73125  -14.14362  -19.42517
       O    19.67806  -14.25334  -19.32000
      H1    20.05807  -13.71246  -20.00942
       H    16.75978  -13.16195  -18.66574
       O    16.80167  -13.89882  -19.32160
      H1    16.38152  -14.57633  -18.79216
       H    15.14313  -11.24158  -17.77442
       O    16.12865  -11.37256  -17.68776
      H1    16.61548  -10.99848  -18.41854
       H    12.20940  -15.36268  -18.25201
       O    12.76881  -15.66342  -18.99289
      H1    13.65852  -15.86753  -18.61885
       H    17.60879  -20.03224  -14.95715
       O    17.44188  -19.10483  -14.70149
      H1    18.34288  -18.83689  -14.40585
       H    17.78295   -9.43661  -19.31142
       O    17.81528  -10.38675  -19.59248
      H1    18.70085  -10.70230  -19.38459
       H    11.71674  -17.15546  -19.24464
       O    11.48329  -17.95438  -19.71974
      H1    12.35509  -18.48253  -19.75842
       H    13.06939  -19.22363  -13.82783
       O    12.20683  -18.85417  -13.68743
      H1    11.67297  -19.44975  -14.20000
       H    18.82206  -17.46670  -17.34495
       O    18.26076  -18.20059  -17.66976
      H1    17.74350  -18.41750  -16.90100
       H    13.27587  -11.15268  -15.09115
       O    14.22980  -11.31072  -14.92736
      H1    14.40679  -12.23754  -15.07326
       H     9.46384  -14.66949  -13.92575
       O     9.32283  -15.28406  -14.61472
      H1     9.84500  -15.01779  -15.34799
       H    19.35935  -14.99179  -15.83032
       O    19.81051  -15.49551  -16.54276
      H1    19.89830  -14.93482  -17.28939
       H    17.45434  -13.14279  -11.80489
       O    17.00971  -12.87892  -12.60683
      H1    17.55520  -13.26778  -13.30287
       H    16.72433  -17.68006  -12.06741
       O    15.82335  -18.01424  -11.93751
      H1    16.03246  -18.91752  -11.57073
       H    15.08400  -16.17299  -17.04641
       O    15.20633  -15.88082  -18.00667
      H1    15.56031  -16.69684  -18.40767

