72
frame 1 | Written by MDAnalysis XYZWriter (release 2.4.3)
       H    17.05310   11.86372    3.51814
       O    16.64829   11.50243    2.69033
      H1    17.34928   10.95863    2.29453
       H    13.65401   18.35606   11.81067
       O    14.35705   17.74920   11.60284
      H1    13.95382   17.05198   11.02360
       H    18.32278   18.25267   12.45178
       O    19.00020   17.77194   12.98376
      H1    19.66249   18.43013   13.22475
       H    20.20896   16.28045    9.52866
       O    19.24940   16.46794    9.55776
      H1    18.88300   16.22325    8.70098
       H    18.93403   17.01867    2.25013
       O    19.66267   17.64423    2.05667
      H1    19.23920   18.50259    2.23187
       H    13.51533   15.57764    7.30038
       O    13.52034   14.87002    7.97416
      H1    14.50778   14.75443    8.13801
       H    14.03399   16.29894    3.05495
       O    13.76849   15.49196    3.42747
      H1    13.50107   15.72075    4.35564
       H    15.66936   13.64100    9.12618
       O    16.06812   14.48028    8.77631
      H1    16.06395   15.14131    9.51698
       H    17.96106   10.19159    4.62056
       O    18.04171   10.97008    5.18576
      H1    18.98560   11.10610    5.13313
       H    12.54588   17.35862    5.84854
       O    13.46890   17.10622    5.95502
      H1    14.02382   17.62104    5.40768
       H    16.78353   20.45185   11.77758
       O    16.94902   19.51766   11.47443
      H1    16.17356   18.97421   11.81239
       H    16.20204   18.54220    4.79754
       O    15.45563   18.21907    4.32213
      H1    15.01950   19.05948    4.02253
       H    17.87296   10.78184    8.64031
       O    17.90076   11.53513    8.04488
      H1    18.13725   11.18262    7.20042
       H    13.85771   13.71774    4.76936
       O    13.09897   13.43160    5.25314
      H1    13.40609   13.45508    6.15030
       H    18.70159   14.11304   12.34133
       O    17.78882   13.76739   12.12182
      H1    17.45960   13.53855   12.97971
       H    13.56838   18.12662    9.23523
       O    14.08707   18.57782    8.57878
      H1    13.56590   18.56985    7.73882
       H    17.63922   19.03784    6.26174
       O    17.95392   18.63860    5.46380
      H1    18.85269   19.01475    5.25955
       H    16.16863   11.03781    7.84220
       O    15.28484   10.81236    7.68849
      H1    15.20930   10.77541    6.69092
       H    17.25196   16.59964    4.06721
       O    17.83496   15.91567    3.62396
      H1    18.44131   15.72747    4.35111
       H    17.12549   15.54031    7.70402
       O    17.68762   16.11201    7.17632
      H1    17.19436   16.77591    6.66847
       H    13.09267   15.16173   10.86080
       O    12.91435   15.87643   10.24594
      H1    13.19848   15.66118    9.35709
       H    16.95079   14.41538    4.40167
       O    16.50204   13.75747    5.00919
      H1    17.23257   13.59968    5.67498
       H    17.67998   16.29520   10.55276
       O    16.75633   16.27870   10.84902
      H1    16.76755   15.55690   11.51877
       H    18.96437   12.66122    8.96318
       O    19.43299   13.28279    9.55028
      H1    18.92473   13.45215   10.33507

