72
frame 1 | Written by MDAnalysis XYZWriter (release 2.4.3)
       H    -2.04796  -15.00362  -10.55048
       O    -2.94689  -15.07655  -10.16940
      H1    -3.33063  -14.19732  -10.12862
       H    -6.62295  -16.69315  -15.24347
       O    -7.13577  -17.28576  -14.63337
      H1    -6.73930  -18.16532  -14.78570
       H    -4.87722  -12.12547  -16.09617
       O    -4.53564  -12.80621  -15.51915
      H1    -3.81149  -13.13135  -16.15363
       H     0.47030  -18.49551  -15.94769
       O     0.17327  -18.78305  -15.06714
      H1     0.78125  -19.31910  -14.56709
       H    -4.23011  -18.35098  -15.27233
       O    -3.85893  -17.45806  -15.50083
      H1    -3.57027  -17.04960  -14.63693
       H    -7.09581  -18.23580  -10.75747
       O    -6.65460  -17.58502  -11.37927
      H1    -7.25325  -17.57066  -12.13533
       H    -6.21285  -15.90373  -11.43812
       O    -6.17616  -14.92985  -11.30916
      H1    -6.27096  -14.52907  -12.21978
       H    -5.56803  -14.40436  -15.91022
       O    -6.14004  -15.20611  -16.12446
      H1    -6.85519  -14.80860  -16.63314
       H    -8.08887  -13.25250  -14.26954
       O    -8.84506  -13.22849  -14.87619
      H1    -8.69996  -12.51436  -15.50555
       H    -2.47892  -15.48241  -12.62671
       O    -3.03835  -16.11325  -13.10922
      H1    -3.50140  -16.46077  -12.34706
       H    -0.23311  -15.92936  -13.60313
       O     0.59625  -15.83813  -14.08687
      H1     0.68657  -16.70220  -14.52785
       H    -5.93214  -12.59176  -13.93683
       O    -6.59058  -12.76795  -13.27474
      H1    -6.79790  -11.91224  -12.89537
       H    -1.76631  -12.81355  -17.45012
       O    -2.37697  -13.45899  -17.01539
      H1    -2.72323  -14.01965  -17.70201
       H    -0.80095  -13.68794  -11.26515
       O    -1.11664  -14.08259  -12.10154
      H1    -1.52321  -13.34662  -12.52373
       H    -1.80621  -16.49697  -17.67270
       O    -2.73159  -16.73252  -17.97072
      H1    -3.25782  -17.00089  -17.15146
       H     0.46424  -17.21515  -10.43104
       O    -0.46436  -16.98308  -10.22207
      H1    -0.74353  -17.78351   -9.74526
       H    -2.63662  -18.91521  -12.25174
       O    -2.58688  -18.57387  -11.38492
      H1    -2.07638  -17.77024  -11.31822
       H    -8.21670  -17.49235  -17.93367
       O    -8.47588  -16.73609  -17.36646
      H1    -8.07879  -16.92106  -16.50707
       H    -2.82759  -14.92127  -20.23141
       O    -3.30206  -14.63564  -19.41478
      H1    -3.20977  -15.36574  -18.78898
       H     0.12859  -17.79194  -18.41659
       O     0.07793  -17.34896  -17.57906
      H1     0.76351  -16.67479  -17.56950
       H    -9.98495  -17.30241  -13.09181
       O    -9.33126  -18.01019  -13.24893
      H1    -8.54648  -17.63650  -13.68002
       H    -7.82336  -19.23834  -19.56841
       O    -7.80558  -19.13275  -18.60844
      H1    -8.60142  -19.58650  -18.23718
       H    -3.20869  -12.69604  -14.13757
       O    -2.43874  -12.41563  -13.60825
      H1    -2.89758  -11.78333  -12.95689
       H    -4.63004  -16.71889   -9.32639
       O    -4.75246  -17.22458   -8.47325
      H1    -5.38776  -16.68360   -7.96326

