72
frame 1 | Written by MDAnalysis XYZWriter (release 2.4.3)
       H    -2.38794   18.08684   -3.45813
       O    -2.57694   17.81131   -2.54773
      H1    -2.23548   18.55270   -2.02853
       H    -0.13931   15.64382   -2.67453
       O    -0.84662   15.75213   -2.00094
      H1    -1.48056   16.42963   -2.29427
       H    -4.04856   19.44454  -11.66729
       O    -4.91768   19.07247  -11.59700
      H1    -5.50577   19.79265  -11.30568
       H    -2.75251   19.13757  -10.19292
       O    -2.70406   18.59444   -9.40499
      H1    -3.61440   18.69324   -9.06090
       H    -2.26249   18.95298   -5.40788
       O    -1.54896   18.47571   -4.87835
      H1    -0.86830   19.13336   -4.65847
       H     0.33127   15.58353   -7.81371
       O     0.80468   15.71590   -8.66982
      H1     1.09671   16.64307   -8.74730
       H    -1.48469   12.85911   -6.16157
       O    -1.12468   12.97592   -7.05391
      H1    -1.59117   12.42005   -7.67674
       H    -9.33603   17.70789   -5.68985
       O    -9.54064   16.89457   -5.28647
      H1    -8.79619   16.29205   -5.42003
       H    -7.00235   19.39511   -9.09607
       O    -7.71421   19.59631   -9.64759
      H1    -8.47134   19.06678   -9.45590
       H    -8.41327   17.59489   -2.15759
       O    -7.87924   16.78955   -2.05454
      H1    -8.38544   16.07166   -2.41029
       H    -4.41194   15.81213   -5.41387
       O    -5.07633   16.50663   -5.54185
      H1    -5.17667   16.85995   -4.59494
       H    -4.30348   11.66264   -4.74665
       O    -4.67847   12.52374   -4.90005
      H1    -5.30740   12.36874   -5.66879
       H    -8.53615   15.43823   -7.93483
       O    -8.47517   15.94501   -8.77186
      H1    -8.18075   15.24717   -9.38539
       H    -7.31877   14.43599   -5.60032
       O    -7.54781   15.25591   -6.05213
      H1    -6.81756   15.85658   -5.85533
       H    -1.23348   19.12239   -0.02563
       O    -1.88848   19.71918   -0.43170
      H1    -2.38901   20.14550    0.28668
       H    -4.66136   17.85298   -2.89042
       O    -5.53837   17.98122   -3.28163
      H1    -6.18123   17.34991   -2.89259
       H    -6.89578   13.41337   -7.79806
       O    -6.04082   13.05474   -7.63115
      H1    -6.17564   12.09823   -7.93235
       H    -1.10418   16.60471   -5.90140
       O    -0.61087   15.81702   -6.27873
      H1    -1.25929   15.11439   -6.41085
       H    -4.48971   19.63816   -5.54290
       O    -3.92133   19.09600   -6.03341
      H1    -4.22397   18.23931   -5.74234
       H    -3.64862   14.41592   -8.13700
       O    -3.49888   14.17595   -9.05155
      H1    -2.87530   14.85191   -9.32384
       H    -3.49383   13.60812   -5.26689
       O    -2.79352   14.33679   -5.36792
      H1    -2.21011   14.34946   -4.57990
       H    -5.30067   15.63150  -11.62936
       O    -5.27070   16.44401  -12.14937
      H1    -5.42532   17.17896  -11.50817
       H    -9.90955   14.79545   -3.79249
       O    -9.02117   14.70340   -3.36548
      H1    -8.69444   13.83444   -3.65086
       H    -0.67124   15.74838   -9.82663
       O    -1.46922   16.09548  -10.21886
      H1    -1.69546   16.89174   -9.69567

