72
frame 1 | Written by MDAnalysis XYZWriter (release 2.4.3)
       H    17.15066  -11.73410   -5.99598
       O    16.58060  -11.30506   -6.61158
      H1    16.78485  -10.35321   -6.55350
       H    13.86830  -12.05071   -4.15117
       O    13.75606  -12.99866   -4.00968
      H1    13.12688  -13.12627   -3.25621
       H    16.19654  -15.33956   -5.85356
       O    16.77423  -15.92146   -5.33772
      H1    16.64714  -16.85943   -5.61684
       H    11.71161  -12.80069   -8.95290
       O    11.12010  -13.28549   -8.34985
      H1    11.12694  -14.18565   -8.71547
       H    13.63321  -12.22181  -11.05001
       O    13.16021  -12.13326  -10.17451
      H1    13.53119  -11.23812   -9.87199
       H    11.34393  -10.89259   -6.76008
       O    12.26032  -11.25785   -6.72396
      H1    12.76315  -10.74356   -7.38795
       H    13.24782  -19.32885   -8.13065
       O    13.65778  -19.15445   -8.98958
      H1    13.86589  -18.16924   -9.15400
       H    14.05746  -12.74635  -13.43944
       O    14.33597  -13.08097  -12.55754
      H1    15.30382  -12.91029  -12.46542
       H    11.64277  -15.14727   -6.03082
       O    12.09089  -15.95955   -6.24705
      H1    11.70047  -16.20563   -7.10864
       H    13.51807  -14.77015   -6.23596
       O    14.42817  -14.46470   -6.19821
      H1    14.43660  -13.81161   -5.45813
       H    12.20948  -16.31810   -9.61875
       O    11.40193  -16.05425   -9.14205
      H1    10.71775  -16.46642   -9.67176
       H    19.16371  -12.58981   -9.92994
       O    19.41491  -12.79192  -10.89263
      H1    19.82864  -13.71469  -10.77775
       H    14.65750  -14.09670   -8.07869
       O    14.45778  -14.29781   -8.98859
      H1    13.95448  -13.57612   -9.26637
       H    11.41319  -13.78082   -4.65579
       O    10.70437  -13.59435   -5.26397
      H1    11.06944  -13.13748   -6.01947
       H    11.97054  -11.22495  -11.09539
       O    11.52934  -10.78366  -11.87435
      H1    12.19599  -10.12219  -12.12216
       H    18.35276  -16.05667   -8.49734
       O    18.13670  -15.80623   -9.41518
      H1    18.96333  -15.43034   -9.71015
       H    17.93649  -11.21441   -8.96275
       O    18.50511  -11.95132   -8.56600
      H1    17.86483  -12.65391   -8.27294
       H    15.38445   -9.83158   -9.28132
       O    14.60640   -9.82672   -9.86347
      H1    14.93342  -10.02880  -10.75514
       H    12.61844  -14.83922  -11.83212
       O    11.93112  -15.34312  -12.25487
      H1    12.31060  -16.21680  -12.29687
       H    17.45434  -13.14279  -11.80489
       O    17.00971  -12.87892  -12.60683
      H1    17.55520  -13.26778  -13.30287
       H    16.72433  -17.68006  -12.06741
       O    15.82335  -18.01424  -11.93751
      H1    16.03246  -18.91752  -11.57073
       H    16.48972  -11.18690  -12.10605
       O    16.25613  -10.23895  -12.04708
      H1    15.75704  -10.07161  -12.83504
       H    18.19712  -17.60917   -9.82326
       O    18.09984  -18.56230   -9.84919
      H1    17.59931  -18.85782   -9.12762
       H    14.40256  -15.84340   -9.61167
       O    14.28979  -16.68607  -10.10269
      H1    15.09301  -17.04447  -10.56304

