72
frame 1 | Written by MDAnalysis XYZWriter (release 2.4.3)
       H    -0.46788   -5.93637   -1.00938
       O     0.40554   -5.93705   -1.43434
      H1     0.23335   -6.72461   -2.00982
       H    -1.20446   -1.79097   -2.93330
       O    -1.40193   -1.15847   -3.66731
      H1    -1.09096   -1.52338   -4.48672
       H     0.64765   -4.86019   -2.98628
       O     0.23095   -4.19639   -3.60088
      H1     0.97305   -3.78374   -4.05130
       H    -4.85749   -1.85709   -3.71987
       O    -4.24171   -2.54811   -4.01516
      H1    -3.44219   -2.00904   -3.92266
       H    -1.16436   -5.39747   -6.28798
       O    -1.50389   -4.72861   -5.66519
      H1    -0.85351   -4.59936   -4.89679
       H    -2.06710   -5.25242    0.97972
       O    -2.25083   -5.50444    0.00274
      H1    -1.79013   -4.77865   -0.44917
       H    -1.06620   -3.25611   -6.30109
       O    -1.00271   -2.27201   -6.45089
      H1    -1.97169   -2.06012   -6.67062
       H     2.25383   -2.05595   -0.00226
       O     2.29102   -2.82802   -0.63439
      H1     3.23413   -2.87096   -1.04475
       H    -0.01458   -2.82505   -0.82398
       O    -0.72913   -2.88785   -1.44850
      H1    -0.42425   -3.49051   -2.19684
       H     2.28832   -4.55806    2.35552
       O     1.75771   -4.62538    3.20661
      H1     0.87995   -4.22522    3.02586
       H     2.16009   -3.28975   -6.27679
       O     1.62473   -2.88479   -5.58944
      H1     0.70914   -2.69603   -5.93989
       H    -1.33645    0.85604   -4.44639
       O    -0.89883    1.58285   -4.92893
      H1     0.02619    1.40843   -4.88272
       H    -1.32057    0.16120   -0.25372
       O    -0.52618    0.46465    0.17417
      H1     0.08059    0.81030   -0.52572
       H    -2.26630   -7.42148    0.04028
       O    -2.03320   -8.32305    0.29670
      H1    -1.11272   -8.27407    0.43371
       H    -4.79223    0.20034   -0.89312
       O    -5.25825   -0.00134   -0.08569
      H1    -6.07978   -0.43252   -0.46218
       H     2.55181    0.27108   -4.54996
       O     1.71278    0.09579   -5.00239
      H1     1.63200   -0.86055   -5.15884
       H     1.17294    2.10399   -2.39343
       O     1.05338    1.15919   -2.18543
      H1     1.12724    0.66701   -3.06060
       H    -4.12955   -5.55711   -0.57388
       O    -5.01591   -5.92114   -0.70642
      H1    -5.28725   -5.42350   -1.44053
       H     2.85897   -4.22408    0.34015
       O     3.21915   -4.73442    1.07542
      H1     4.03809   -4.31028    1.41597
       H    -2.36908   -1.35432    2.00911
       O    -1.39462   -1.28617    1.91751
      H1    -1.15398   -0.56976    1.38386
       H    -4.46715   -1.57107    2.68141
       O    -4.18363   -1.74768    1.68234
      H1    -4.73263   -1.18560    1.09949
       H    -3.43614   -5.11767    2.24306
       O    -2.57608   -5.46572    2.53473
      H1    -2.67564   -6.45548    2.79548
       H     1.86761   -1.25177    2.57159
       O     1.86316   -0.93588    1.63772
      H1     0.98055   -0.61591    1.46589
       H    -2.41883   -0.27129   -2.16806
       O    -2.76691    0.33208   -1.54156
      H1    -2.71951    1.27503   -1.88322

