72
frame 1 | Written by MDAnalysis XYZWriter (release 2.4.3)
       H     6.07847   -1.60007    3.75223
       O     5.57701   -1.36359    2.98916
      H1     5.95952   -0.54034    2.74403
       H     5.91429   -6.95085    3.84585
       O     6.23463   -6.06475    3.66165
      H1     5.41790   -5.45830    3.92748
       H     7.21892   -6.27977    5.08621
       O     7.76895   -6.84066    5.71954
      H1     7.39691   -7.73005    5.66392
       H     5.12472   -4.33869    8.80402
       O     5.83196   -4.51498    9.42113
      H1     5.41067   -5.12892   10.04547
       H     7.51399   -5.26646    2.82516
       O     8.29723   -4.85315    2.46878
      H1     7.97130   -4.14743    1.90619
       H    14.05900   -5.76204    4.57283
       O    13.50121   -5.61730    5.32431
      H1    13.32980   -6.40313    5.90206
       H    11.94038   -4.90210    8.34176
       O    12.60205   -4.29619    8.81295
      H1    13.00909   -3.81802    8.13105
       H     9.25034   -0.64958    2.71126
       O     8.90897   -0.44711    3.58156
      H1     8.33139    0.35897    3.52855
       H    13.98066   -4.16933    6.38777
       O    14.44654   -3.52942    6.93779
      H1    15.38851   -3.59665    6.59978
       H     9.38213   -6.95959    5.08736
       O    10.34958   -6.94182    4.99215
      H1    10.57849   -7.66382    4.40594
       H     7.19256   -5.41270    8.37753
       O     8.10956   -5.66250    8.10416
      H1     7.96489   -6.03614    7.22169
       H    10.44251   -0.55890    1.46137
       O    10.06315   -1.42336    1.32655
      H1    10.64187   -2.07344    1.82620
       H     7.05705    0.25450    6.09937
       O     7.02140    1.00454    6.72743
      H1     7.56669    0.91407    7.47599
       H    12.62686   -4.00007    2.21049
       O    12.00427   -3.32585    2.51333
      H1    11.40261   -3.67601    3.18476
       H     9.62630   -4.35647    3.70843
       O    10.30434   -4.08359    4.35036
      H1    10.72080   -4.96195    4.63228
       H    12.28754   -1.50403    2.98841
       O    12.41594   -0.54476    3.02416
      H1    12.22121   -0.14903    3.89936
       H    12.75419   -8.14795    7.50184
       O    12.60832   -8.09703    6.51239
      H1    11.71629   -7.77332    6.45847
       H     9.49694   -0.53370    8.65765
       O     8.83318    0.13018    8.98941
      H1     8.24754   -0.45633    9.48736
       H    11.34566   -1.80429    8.73594
       O    10.68292   -1.66802    8.04039
      H1    10.24914   -2.49183    7.72954
       H     7.79326   -2.24119    6.04348
       O     7.42654   -1.68135    5.35019
      H1     8.13299   -1.48013    4.64349
       H     9.65329   -7.07529    8.47967
       O    10.59143   -7.29360    8.59704
      H1    10.78715   -6.96798    9.45788
       H     8.68343   -4.40842    7.35988
       O     9.01987   -3.61547    6.82450
      H1     9.38638   -3.87223    6.00531
       H    10.98931   -0.42055    6.11835
       O    10.80973    0.17050    5.33284
      H1    10.13354   -0.25252    4.80895
       H     9.68171   -4.05540   10.04505
       O    10.05105   -3.98677   10.89988
      H1     9.27864   -3.99602   11.52626

