72
frame 1 | Written by MDAnalysis XYZWriter (release 2.4.3)
       H     4.54381   13.81186   14.36675
       O     5.03023   13.04035   14.12658
      H1     4.97771   13.03351   13.20476
       H     0.81998   19.27017   12.17780
       O     1.60022   19.19434   12.67683
      H1     1.95120   18.31738   12.68215
       H     2.98932   18.50167    7.13205
       O     2.89552   17.98642    8.00667
      H1     2.01716   18.35930    8.40002
       H     2.69100   16.07962   12.10550
       O     1.97311   16.41572   12.64554
      H1     1.14465   16.06545   12.25247
       H     4.70550   16.55420   11.59110
       O     4.89191   15.58615   11.62157
      H1     5.24903   15.32725   10.74385
       H     6.42906   15.21030   12.52480
       O     7.29938   15.39718   12.88113
      H1     7.48691   14.54027   13.25728
       H     2.29125   14.68381    7.25489
       O     2.79693   15.23597    7.85373
      H1     2.59314   16.14748    7.68287
       H     3.13758   11.37870    7.73823
       O     2.25325   11.47711    8.16036
      H1     2.25840   11.27141    9.11833
       H    -1.65681   11.89698   11.17253
       O    -0.80101   12.36215   11.09068
      H1    -0.89841   12.72651   10.18907
       H     1.48340   13.26496    5.81744
       O     1.21376   13.49253    6.67959
      H1     1.40454   12.79234    7.31664
       H     5.49728   13.25837   11.10516
       O     5.43261   12.38015   11.42815
      H1     4.48894   12.21774   11.28387
       H    -2.47479   17.24140   10.38826
       O    -1.83163   16.85567    9.76106
      H1    -2.36301   16.25001    9.31317
       H    -1.36571   12.27567    7.58066
       O    -0.96768   12.83170    8.29760
      H1    -0.50780   13.43766    7.77363
       H    -1.06325   15.73884   10.83298
       O    -0.38341   15.35545   11.39403
      H1    -0.69680   14.46222   11.62678
       H     1.33753   14.49981   10.66893
       O     2.30213   14.27809   10.52856
      H1     2.44379   14.74215    9.68584
       H     1.45226    9.91432   13.18155
       O     2.13906   10.58997   13.15259
      H1     1.59450   11.40118   13.31011
       H    -0.32852   13.27653   13.87857
       O     0.34537   12.81470   13.39610
      H1    -0.14326   12.56443   12.56968
       H     4.66061   12.02469    5.98125
       O     4.78294   12.12891    6.90276
      H1     5.58059   11.61667    7.03433
       H    -0.50645   17.99069    8.97347
       O     0.10543   18.29463    8.28399
      H1    -0.31039   18.00115    7.47918
       H     6.71569   15.26137    8.96461
       O     5.91510   14.86287    9.32488
      H1     5.45551   14.71883    8.55248
       H     5.13858   13.97065    6.44838
       O     5.14282   14.97367    6.51997
      H1     4.46559   15.12399    7.26061
       H     4.94879   18.47461   12.78620
       O     4.56973   18.14201   11.94530
      H1     4.74421   18.82222   11.29451
       H     2.65535   15.35474   14.11380
       O     3.19064   15.06070   14.83603
      H1     2.69271   14.90931   15.65745
       H     2.73892   12.59202   10.89371
       O     2.94336   11.63088   10.94028
      H1     2.60506   11.24747   11.76250

