72
frame 2 | Written by MDAnalysis XYZWriter (release 2.4.3)
       H     3.50619  -17.82043  -13.76975
       O     3.45117  -18.47937  -14.48559
      H1     3.98160  -19.25838  -14.38451
       H     9.49510  -18.99765   -3.28147
       O     8.79336  -19.34995   -3.86401
      H1     8.45350  -20.02382   -3.29016
       H     4.44284  -17.81885   -9.99811
       O     5.37503  -18.13362  -10.06762
      H1     5.18559  -19.06879   -9.85938
       H     4.94748  -16.21811  -15.52769
       O     5.21959  -15.68894  -14.74235
      H1     5.77921  -16.22447  -14.15130
       H     7.73549  -13.73320  -12.41753
       O     6.78148  -13.78330  -12.59554
      H1     6.64348  -14.72587  -12.47999
       H     8.24497  -19.06732  -15.38004
       O     8.79124  -19.34256  -14.61327
      H1     9.28475  -18.55806  -14.41108
       H     8.13157  -17.71474   -9.91246
       O     8.29432  -16.77058  -10.07172
      H1     7.71798  -16.57452  -10.83754
       H     7.62596  -17.89662   -4.05808
       O     7.37160  -16.96947   -4.03749
      H1     8.10719  -16.44946   -4.36723
       H     2.49022  -18.87615  -11.37547
       O     2.42310  -17.92024  -11.14432
      H1     2.68212  -17.42964  -11.91058
       H     6.57829  -14.53872   -8.82686
       O     6.99311  -15.28464   -8.34085
      H1     7.45683  -15.82443   -9.03841
       H    12.55576  -19.00563   -8.39702
       O    12.14335  -18.41751   -9.04267
      H1    12.72175  -17.72274   -9.25706
       H     9.56599  -19.41496   -7.10494
       O    10.09596  -18.61357   -7.02717
      H1    10.35813  -18.35698   -7.89169
       H    10.49924  -17.60804   -5.32248
       O    10.49231  -16.96778   -4.61798
      H1    11.27445  -16.46137   -4.69328
       H    12.21944  -14.61067   -6.22762
       O    12.34933  -15.41567   -6.66391
      H1    11.67463  -15.55340   -7.33878
       H    11.39782  -15.93499   -9.25206
       O    10.60794  -15.55460   -8.84066
      H1     9.82080  -15.83494   -9.29374
       H     6.99927  -19.86799   -9.85837
       O     7.55844  -19.62152   -9.06558
      H1     6.96023  -19.12600   -8.47727
       H     0.72681  -18.57269   -6.63056
       O     1.52699  -18.53820   -6.03942
      H1     1.95152  -17.65652   -6.24398
       H    10.11401  -15.74602  -13.12503
       O     9.35595  -15.89416  -13.65215
      H1     9.61250  -15.66219  -14.60661
       H     4.12080  -14.93559   -9.50875
       O     4.22531  -15.48675   -8.68684
      H1     5.17249  -15.45546   -8.50002
       H     3.38607  -16.24474   -7.06504
       O     2.68753  -16.27709   -6.41969
      H1     3.05233  -15.78308   -5.70960
       H     8.05327  -19.07094  -12.93003
       O     7.88728  -18.94257  -11.96309
      H1     7.32119  -19.68048  -11.74329
       H     8.04039  -14.54962   -6.92151
       O     8.33934  -14.15298   -6.10501
      H1     8.67718  -13.22246   -6.42404
       H     5.93759  -17.74263   -8.07306
       O     6.29680  -17.95700   -7.18053
      H1     6.77513  -17.18953   -6.89718
       H     7.52824  -16.62357  -13.09643
       O     6.74589  -16.58693  -12.56617
      H1     6.81261  -17.41798  -12.07307

