72
frame 2 | Written by MDAnalysis XYZWriter (release 2.4.3)
       H    -4.99254   -8.57245    5.65829
       O    -5.71395   -7.97095    5.34015
      H1    -6.50881   -8.37992    5.65714
       H    -6.43159   -8.04583    1.80050
       O    -7.26360   -7.55859    1.50243
      H1    -7.57735   -7.85139    0.61746
       H    -7.01959  -12.09379    5.61271
       O    -7.00234  -11.62028    4.77111
      H1    -7.70588  -11.95202    4.19870
       H    -8.62797   -7.67643    2.34478
       O    -9.26158   -7.57393    3.06458
      H1    -9.84774   -8.34320    2.89048
       H   -10.91841   -4.42139    2.95019
       O   -10.76125   -3.81645    3.67995
      H1   -10.11868   -3.14134    3.37728
       H    -9.26858  -13.14843    2.87750
       O    -8.89091  -12.26813    2.94895
      H1    -8.37857  -12.30561    2.11539
       H   -11.24827  -13.18087    0.19175
       O   -10.48994  -12.71563   -0.15690
      H1   -10.77459  -11.81381   -0.47541
       H    -8.42218   -6.18510   -0.99852
       O    -8.63802   -5.36144   -0.51768
      H1    -7.90776   -5.14728    0.10865
       H   -10.93308  -10.34120    4.12743
       O   -10.96748   -9.91885    3.28528
      H1   -10.56622  -10.60468    2.76385
       H   -10.81018  -11.53011    6.04402
       O   -10.75824  -10.53579    6.12407
      H1    -9.84068  -10.37789    6.08616
       H    -7.72809   -9.88791    5.14520
       O    -8.17826   -9.15439    5.49138
      H1    -8.24671   -8.45991    4.88223
       H    -8.66405   -8.97876   -1.10235
       O    -8.01418   -8.25682   -0.92571
      H1    -7.16117   -8.48156   -1.23182
       H   -10.65153   -5.23695    5.01573
       O   -10.43608   -6.12381    5.34538
      H1   -10.04111   -6.54503    4.59351
       H   -14.25719  -10.30715    2.99940
       O   -13.51576  -10.90585    2.78563
      H1   -12.66105  -10.49998    2.95143
       H   -12.36267   -7.40878    8.22790
       O   -13.09885   -7.09941    7.66187
      H1   -12.85786   -7.22063    6.79433
       H   -12.05427   -6.06820    1.28958
       O   -11.50284   -5.29165    1.38453
      H1   -10.79120   -5.37748    0.76555
       H    -9.20571  -10.60571   -2.26955
       O    -9.96688  -10.29552   -1.77385
      H1   -10.31487   -9.48100   -2.22283
       H    -7.37364  -12.03805   -0.21153
       O    -7.76510  -12.62973    0.42526
      H1    -8.74637  -12.58531    0.31489
       H   -11.87326   -6.68302    4.62763
       O   -12.82884   -6.85976    4.47606
      H1   -12.87419   -7.34991    3.61767
       H    -5.19029   -9.62876    2.30217
       O    -5.19664   -8.74470    2.68375
      H1    -5.53234   -8.73336    3.56600
       H    -8.97579   -7.87606    8.27303
       O    -9.83894   -7.51143    8.00506
      H1    -9.77284   -7.05637    7.12383
       H   -12.74293   -9.56888   -1.28688
       O   -12.76414   -9.88416   -0.39307
      H1   -13.25738  -10.73454   -0.51317
       H   -13.92892   -7.54457    1.21296
       O   -12.98520   -7.70265    1.20425
      H1   -12.95291   -8.56087    0.74858
       H    -6.75712   -5.97454    1.36610
       O    -6.55257   -5.02095    1.47981
      H1    -5.74316   -4.84111    1.03433

