72
frame 2 | Written by MDAnalysis XYZWriter (release 2.4.3)
       H     3.83677   -7.88371    2.65676
       O     4.58531   -7.44216    2.23927
      H1     4.31611   -7.26130    1.31321
       H    10.19223  -13.14905    0.37177
       O     9.24487  -12.90501    0.53747
      H1     9.14828  -12.14092   -0.01915
       H     8.63426   -9.47018    6.93237
       O     8.09517   -9.40304    6.07495
      H1     8.60947  -10.04931    5.47574
       H     2.79869  -15.18037    1.38735
       O     2.75478  -15.73137    2.15329
      H1     3.49882  -16.31855    2.10416
       H     8.39106  -14.06730   -0.30873
       O     7.89049  -14.54412   -0.95692
      H1     8.01423  -14.05254   -1.81889
       H     7.82122  -11.13227   -1.16903
       O     8.67835  -10.78843   -0.90094
      H1     9.24459  -10.94884   -1.67747
       H     5.50863   -9.25141    2.04919
       O     5.89877  -10.04654    1.66591
      H1     6.85308   -9.89994    1.65163
       H     3.10116   -9.96822    1.39306
       O     2.94718  -10.47146    0.60111
      H1     3.00590   -9.87757   -0.16831
       H     5.72157  -11.67377    2.28222
       O     5.89731  -12.62125    2.58160
      H1     5.68694  -13.11213    1.77934
       H     3.92746  -13.36297   -0.78938
       O     4.05190  -13.42069    0.16329
      H1     3.59110  -12.62338    0.43960
       H     8.56108   -8.59322    1.50326
       O     8.62327   -9.59487    1.61853
      H1     8.80800   -9.92415    0.71027
       H     7.66917  -15.87273    1.63136
       O     6.81126  -15.37663    1.56417
      H1     6.83373  -15.07109    0.69572
       H     5.07101   -9.24625    5.79246
       O     5.39627  -10.05256    6.23534
      H1     6.36182   -9.93636    6.19435
       H     9.28310  -10.39963    3.17510
       O     9.47775  -10.70228    4.09104
      H1    10.48787  -10.77349    4.09453
       H     4.20870  -11.28773    5.05288
       O     3.83095  -11.98580    4.47956
      H1     4.52064  -12.33051    3.89451
       H     3.40307   -7.36085    5.71293
       O     3.24962   -8.32759    5.71759
      H1     2.97009   -8.62234    4.83319
       H     7.92129  -13.81583    4.95372
       O     7.58853  -14.23571    5.78208
      H1     6.99680  -14.84361    5.32048
       H     1.83649   -9.61941    3.07276
       O     2.81576   -9.66550    3.18190
      H1     2.97845  -10.56629    3.59733
       H     1.62673  -11.86468    0.81875
       O     0.84130  -12.28068    1.11013
      H1     0.92543  -13.21295    0.76401
       H     3.44562  -13.78718    4.61206
       O     3.22810  -14.72750    4.60143
      H1     3.09782  -14.86014    3.61452
       H     4.42711  -13.38292   -3.10642
       O     4.29820  -12.67856   -2.42531
      H1     4.96063  -12.00606   -2.48932
       H     8.86143  -12.35255    3.73302
       O     8.86873  -13.30842    3.54004
      H1     8.30049  -13.37252    2.75723
       H     7.00244   -8.40507   -1.56535
       O     6.07793   -8.49687   -1.60413
      H1     5.89685   -9.41395   -1.33519
       H     5.53150  -10.72168    0.05942
       O     5.79679  -11.05166   -0.78880
      H1     5.26250  -11.84592   -0.78641

