72
frame 2 | Written by MDAnalysis XYZWriter (release 2.4.3)
       H    -7.39236   -4.77466   17.07960
       O    -7.61658   -4.33620   17.91168
      H1    -6.88157   -4.52173   18.56908
       H    -1.02762   -1.34958   18.67044
       O    -0.59658   -2.09978   18.29577
      H1    -1.17751   -2.84898   18.30407
       H    -4.57476   -6.08308   12.29246
       O    -5.44128   -5.70659   12.51058
      H1    -6.01648   -6.15713   11.87505
       H    -9.61204   -7.00458   19.76640
       O    -9.55048   -6.27573   19.05750
      H1    -8.63185   -5.88560   19.20918
       H    -7.50693   -3.55264   13.13536
       O    -6.63573   -3.55023   13.71364
      H1    -6.19147   -4.37152   13.41542
       H    -1.91676  -11.83494   18.56612
       O    -2.80821  -11.47038   18.76511
      H1    -2.82711  -10.55715   18.40057
       H    -8.44267   -8.41098   15.40906
       O    -7.66936   -8.13719   14.89184
      H1    -7.10994   -8.90102   15.08196
       H    -0.46975   -4.30545   13.56076
       O    -1.38234   -4.58649   13.72290
      H1    -1.73324   -4.07995   14.51646
       H    -3.34060   -8.61360   16.99695
       O    -3.26743   -8.83051   17.94845
      H1    -2.40058   -8.58262   18.22445
       H    -3.85092   -8.95195   13.73784
       O    -3.86797   -9.27426   12.86664
      H1    -3.45441   -8.50329   12.40771
       H    -6.42818   -8.79112   18.19093
       O    -7.20224   -9.10874   18.75973
      H1    -7.59323   -9.87504   18.40033
       H    -7.93967   -1.64186   17.57943
       O    -8.12581   -0.92275   16.95687
      H1    -7.24179   -0.74327   16.61585
       H    -3.78407   -2.19761   13.05471
       O    -4.59547   -1.85782   13.38157
      H1    -5.27434   -2.57479   13.31779
       H    -0.99067   -5.13579   19.26409
       O    -1.84379   -4.87503   18.85174
      H1    -1.54903   -4.88728   17.94914
       H    -3.45689   -6.61789   15.15886
       O    -3.14905   -7.52507   15.27230
      H1    -2.47414   -7.72899   14.55994
       H    -0.49597   -7.15557   17.65130
       O    -0.53232   -8.05319   17.94360
      H1     0.23030   -8.57060   17.57140
       H    -3.19990   -4.13517   16.16606
       O    -2.37858   -3.61863   16.19694
      H1    -2.59332   -2.87004   16.71328
       H    -0.52845   -4.89130   16.02397
       O    -0.02386   -5.39684   16.66505
      H1     0.62311   -5.95006   16.14415
       H    -7.16345   -4.85537   14.88342
       O    -7.52964   -5.52447   15.44348
      H1    -7.30106   -6.41997   15.14971
       H    -9.80922   -6.60428   17.19508
       O   -10.05002   -6.72428   16.27485
      H1    -9.51264   -6.00146   15.90446
       H    -5.19099   -1.05620   14.93598
       O    -5.72992   -0.54754   15.58458
      H1    -5.38470    0.37941   15.52256
       H    -4.06211   -7.35785   18.34198
       O    -4.50074   -6.48059   18.50508
      H1    -3.77472   -6.03197   19.03602
       H    -3.21222   -0.60212   17.97124
       O    -3.63535   -1.19127   17.31314
      H1    -4.31066   -0.59537   16.96960
       H    -5.54683   -5.03863   15.83821
       O    -4.60682   -5.10036   16.12814
      H1    -4.71138   -5.64907   16.91143

