72
frame 3 | Written by MDAnalysis XYZWriter (release 2.4.3)
       H     9.27240   18.10851   11.58754
       O     9.30053   17.20090   11.21476
      H1     8.43525   16.81791   11.52194
       H     6.01782   13.12102   15.18702
       O     6.96953   13.29900   15.33168
      H1     7.27221   12.55534   15.88726
       H    12.28052   19.63093   13.56505
       O    12.47566   18.89097   12.97786
      H1    13.18483   19.16570   12.40689
       H    10.14093   13.71041   16.44625
       O     9.87240   13.49498   17.38392
      H1    10.14334   14.24952   17.95037
       H    12.44565   14.12778   16.31526
       O    13.23618   14.10385   16.93997
      H1    13.07592   13.31679   17.50086
       H    14.67769   18.78690   19.09900
       O    14.55859   18.05712   18.52309
      H1    14.01578   18.32268   17.77363
       H     6.44645   15.69944   12.32454
       O     7.33748   15.91872   12.53364
      H1     7.76323   15.06005   12.56030
       H    10.49032   16.67166    9.91702
       O    10.93666   16.19079    9.10885
      H1    11.88090   16.46011    9.31785
       H    10.81382   14.94092   14.70058
       O    11.14796   14.07472   15.00734
      H1    11.84239   13.92175   14.33554
       H    12.93214   19.45642   16.19147
       O    12.64580   18.58234   16.35924
      H1    11.64567   18.56788   16.22148
       H     4.28173   19.09269   15.65629
       O     4.08874   19.66550   14.89047
      H1     3.27525   20.15598   15.06397
       H    11.30777   16.24656   19.27537
       O    10.54647   15.66006   18.98774
      H1    10.02146   16.23556   18.35732
       H     9.70520   13.29012   13.61740
       O     8.79133   13.23408   13.17410
      H1     8.03366   13.03988   13.72289
       H     4.16497   16.97515   15.46630
       O     4.86026   17.13776   16.14064
      H1     5.33030   16.32310   16.34168
       H     6.52046   14.46063   16.53168
       O     6.23303   15.02663   17.23873
      H1     6.53276   14.53467   18.03407
       H    15.33799   15.92029   12.24841
       O    14.38437   15.93054   12.41342
      H1    14.15442   14.97973   12.59195
       H     8.77358   17.33628   17.03041
       O     8.55133   16.90063   17.84837
      H1     7.76133   16.35280   17.63295
       H     7.21458   17.00360   13.99354
       O     7.20425   17.65864   14.72792
      H1     6.37977   17.49385   15.25399
       H    10.10788   17.80760   14.98413
       O     9.67013   18.30721   15.66311
      H1     8.78477   18.08523   15.46951
       H    13.82227   16.57455   10.94530
       O    13.43898   16.97947   10.09540
      H1    14.19391   17.02586    9.53129
       H    14.10043   16.72201   14.09849
       O    14.28150   16.69288   15.02268
      H1    13.72745   17.33986   15.43364
       H     5.96669   19.42208   11.68344
       O     5.91829   19.16296   10.75509
      H1     5.07887   19.52781   10.45684
       H    12.51801   13.56645   12.08921
       O    12.90995   13.52993   12.96711
      H1    13.15115   12.57371   12.93150
       H    10.11751   16.48311   12.99981
       O    10.70109   16.57510   13.74097
      H1    11.48761   17.10242   13.42413

