72
frame 3 | Written by MDAnalysis XYZWriter (release 2.4.3)
       H    14.08955  -12.92769    4.43287
       O    13.40935  -12.67165    3.78926
      H1    12.70072  -13.30779    3.85709
       H    10.03994  -13.32133   -0.76075
       O     9.16086  -13.27192   -0.33216
      H1     8.72197  -12.47718   -0.63012
       H    10.63757  -13.78318    3.40679
       O    11.18161  -14.28564    4.04033
      H1    11.38754  -15.10943    3.53073
       H     8.82281   -9.94754    6.41819
       O     8.38503   -9.52070    5.72478
      H1     8.54578  -10.08795    4.90526
       H    13.14782  -10.47478   -0.35559
       O    12.71345   -9.67596   -0.52701
      H1    12.01455   -9.98591   -1.19850
       H    13.57155  -12.43239    1.65199
       O    13.77856  -12.09745    0.75330
      H1    14.65511  -12.51406    0.57761
       H     8.58059  -14.52789    5.86247
       O     9.49273  -14.48068    6.23252
      H1    10.03535  -14.20518    5.50582
       H     8.56163  -16.88623    0.30293
       O     8.65004  -16.07399    0.78444
      H1     8.65275  -16.29120    1.71342
       H     8.55593  -14.18678   -1.85854
       O     7.94903  -14.38210   -2.61858
      H1     8.51324  -14.39566   -3.36255
       H     6.49467  -10.48795   -0.98470
       O     7.45205  -10.65665   -1.11455
      H1     7.48536  -10.52731   -2.04737
       H     5.66621   -9.47006    2.47266
       O     5.80619  -10.41483    2.38948
      H1     6.72398  -10.58542    2.16584
       H     8.00235  -13.30242    2.71096
       O     7.18551  -13.33820    3.23158
      H1     6.65250  -13.89728    2.58459
       H    12.95608  -11.08202    3.75386
       O    12.84559  -10.09152    3.91159
      H1    12.65998  -10.03453    4.86025
       H     8.02061   -9.06828    1.33505
       O     8.32486  -10.00665    1.23216
      H1     8.15533  -10.26058    0.30055
       H    12.72544  -13.51032   -0.26687
       O    11.93547  -13.81140   -0.70943
      H1    11.77823  -14.68870   -0.37721
       H     6.92370  -15.28927    1.05902
       O     6.08111  -14.97418    1.22585
      H1     5.66490  -14.76097    0.38914
       H     9.92344  -10.17131    2.45808
       O    10.25029  -10.41109    3.33560
      H1    11.22183  -10.18622    3.36322
       H     5.16801  -11.61505    5.40219
       O     4.59194  -11.87026    4.67193
      H1     5.13845  -11.82552    3.83295
       H    10.99536  -16.83443   -0.62192
       O    11.20329  -16.32154    0.19575
      H1    10.38597  -15.91828    0.39611
       H     6.48525  -14.69150    4.95228
       O     6.54644  -15.02635    5.82517
      H1     6.76557  -15.96320    5.88810
       H    12.02435   -7.66893    1.27755
       O    11.15421   -8.14175    1.39567
      H1    11.23046   -8.88786    0.77035
       H     9.88055  -11.95327    2.51449
       O     9.73652  -12.89591    2.27996
      H1     9.26370  -12.99805    1.44701
       H     8.92952  -17.22072    3.51225
       O     8.87088  -16.31024    3.29356
      H1     9.70142  -15.98664    3.73619
       H    10.98134  -11.67997   -1.32433
       O    11.10608  -11.17312   -2.12732
      H1    11.90415  -11.55381   -2.58151

