72
frame 2 | Written by MDAnalysis XYZWriter (release 2.4.3)
       H   -14.93123   -5.75828   10.02260
       O   -15.87593   -6.01587   10.18879
      H1   -16.36393   -5.26374    9.84217
       H   -14.11610  -11.28138   10.09503
       O   -14.09948  -11.86514    9.35560
      H1   -14.11059  -11.23684    8.60144
       H   -17.83100   -9.82912   11.65890
       O   -17.86538  -10.73149   12.02754
      H1   -18.74577  -10.98183   12.41223
       H   -11.75981   -7.16947   17.02687
       O   -12.64214   -7.35737   17.36663
      H1   -12.54572   -6.92185   18.25338
       H   -17.11967   -4.79915   13.23553
       O   -16.40026   -4.34604   13.65898
      H1   -16.67898   -3.86402   14.45915
       H   -19.45823   -5.49914   12.11218
       O   -18.95535   -4.66923   12.42198
      H1   -19.53803   -3.92722   12.36122
       H   -13.59036  -11.17205   15.73234
       O   -13.29599  -11.74338   16.43842
      H1   -12.98502  -11.19438   17.20925
       H   -14.52764   -7.79629    8.48773
       O   -15.23239   -8.26871    8.94098
      H1   -15.70711   -7.63384    9.43553
       H   -17.36022   -7.40734   10.94260
       O   -17.75585   -8.28174   10.88912
      H1   -18.69608   -8.12658   10.63900
       H   -15.39893  -12.34713   16.51323
       O   -16.30334  -12.53465   16.71849
      H1   -16.31333  -13.43789   16.41136
       H   -16.86006   -9.60722   13.30727
       O   -16.57067   -9.04622   14.04513
      H1   -15.62129   -9.25702   14.24490
       H   -17.94566   -6.12034   14.81528
       O   -18.91895   -6.00891   14.91403
      H1   -19.18619   -5.39305   14.19854
       H   -15.55357  -13.03244   13.29675
       O   -15.48352  -12.14839   12.96835
      H1   -16.43942  -11.91607   12.78387
       H   -12.20837   -6.99024   11.51694
       O   -12.73061   -7.38796   12.24973
      H1   -13.06351   -6.64870   12.70220
       H   -13.18860   -8.73505   11.22995
       O   -13.22869   -9.36505   10.52853
      H1   -14.02360   -9.11970   10.04944
       H   -18.82740   -9.11681   17.04092
       O   -19.36369   -8.51744   17.58066
      H1   -19.68209   -9.14942   18.24736
       H   -15.56569   -6.62430   18.67180
       O   -16.44524   -6.75965   18.30878
      H1   -17.00728   -5.99295   18.54230
       H   -13.76616   -6.21317   16.58341
       O   -14.41569   -5.59860   16.25835
      H1   -15.16228   -6.12137   15.88122
       H   -16.65665   -7.76624   15.17694
       O   -16.54680   -6.86890   15.59257
      H1   -16.69784   -6.86446   16.58129
       H   -17.10480  -13.27104    9.44623
       O   -17.70519  -13.09291   10.19164
      H1   -17.48818  -12.21887   10.47693
       H   -16.75964   -9.77902   17.40708
       O   -16.40783   -9.40322   18.20082
      H1   -16.51945   -8.47196   18.05193
       H   -17.21333  -11.26055   15.99053
       O   -17.90982  -10.58443   15.95476
      H1   -17.62234  -10.03673   15.16047
       H   -13.93658   -4.78883   14.46561
       O   -13.77291   -4.87208   13.48178
      H1   -14.69763   -4.90578   13.08874
       H   -14.14346  -10.96409   13.58126
       O   -13.91862  -10.29200   14.22041
      H1   -13.03126  -10.00734   14.01731

