72
frame 2 | Written by MDAnalysis XYZWriter (release 2.4.3)
       H     9.49510  -18.99765   -3.28147
       O     8.79336  -19.34995   -3.86401
      H1     8.45350  -20.02382   -3.29016
       H    16.67676  -13.98737    0.29032
       O    16.63737  -13.10824   -0.11308
      H1    16.29412  -13.21678   -0.99367
       H    13.13586  -16.24009   -2.83023
       O    13.29836  -15.86674   -3.66807
      H1    14.19663  -16.18324   -3.80994
       H     9.71299  -18.18591   -0.60839
       O     9.08179  -18.60232   -0.05820
      H1     8.25856  -18.49796   -0.54661
       H    14.80025  -11.53190   -5.01390
       O    14.12999  -11.86559   -4.40235
      H1    13.87665  -11.05502   -3.93733
       H     7.62596  -17.89662   -4.05808
       O     7.37160  -16.96947   -4.03749
      H1     8.10719  -16.44946   -4.36723
       H    15.96558  -16.28835   -5.18278
       O    15.77836  -16.99336   -4.54975
      H1    15.90554  -17.81675   -5.02910
       H    13.87838  -18.41544   -2.21329
       O    13.67709  -17.67497   -1.64189
      H1    13.54288  -17.90154   -0.72215
       H    12.86479  -13.05849    0.44250
       O    11.98986  -13.09619   -0.01020
      H1    11.82256  -13.99190   -0.37256
       H    12.55576  -19.00563   -8.39702
       O    12.14335  -18.41751   -9.04267
      H1    12.72175  -17.72274   -9.25706
       H     9.56599  -19.41496   -7.10494
       O    10.09596  -18.61357   -7.02717
      H1    10.35813  -18.35698   -7.89169
       H    10.49924  -17.60804   -5.32248
       O    10.49231  -16.96778   -4.61798
      H1    11.27445  -16.46137   -4.69328
       H    12.21944  -14.61067   -6.22762
       O    12.34933  -15.41567   -6.66391
      H1    11.67463  -15.55340   -7.33878
       H    15.81819  -14.19480   -2.73917
       O    16.02628  -13.28654   -3.05334
      H1    15.21644  -12.91269   -3.45185
       H    14.77711  -15.08088   -6.40983
       O    15.66748  -14.68864   -6.30668
      H1    15.54715  -13.79109   -6.00147
       H    15.06230  -13.63484   -8.43077
       O    14.33101  -13.64199   -8.96374
      H1    14.17504  -12.78318   -9.35539
       H    11.26723  -18.77505   -2.25514
       O    10.67847  -18.02738   -2.28480
      H1    10.50684  -17.74899   -3.21984
       H    12.11231  -14.39005   -4.27932
       O    11.99947  -13.47967   -4.65671
      H1    12.79580  -13.00115   -4.47164
       H    10.80665  -16.56200   -1.15912
       O    10.90343  -15.68681   -0.77730
      H1     9.94455  -15.49472   -0.45898
       H    12.91087  -18.96815    1.23388
       O    13.39789  -18.13529    0.97349
      H1    14.35914  -18.34441    1.17507
       H    18.86245  -13.22955   -4.89588
       O    18.31580  -12.63884   -4.39639
      H1    17.61770  -13.03614   -3.78226
       H    16.25936  -16.05160   -3.05314
       O    16.11898  -15.91088   -2.09142
      H1    15.30787  -16.37837   -1.89110
       H    17.43631  -17.24450   -1.43397
       O    18.35101  -17.55089   -1.33936
      H1    18.18729  -18.46562   -1.20510
       H    11.43734  -12.48652   -1.60457
       O    10.86442  -12.20531   -2.29555
      H1    11.11077  -12.65472   -3.11158

