72
frame 2 | Written by MDAnalysis XYZWriter (release 2.4.3)
       H    12.46212   -7.14356   11.16729
       O    11.47764   -7.11823   11.10225
      H1    11.25743   -6.18497   10.95323
       H    14.73626   -7.35266   11.88314
       O    14.08227   -7.38671   11.14869
      H1    14.29299   -6.74156   10.44467
       H    19.00845  -11.16821    8.55454
       O    18.20042  -11.00434    9.10010
      H1    18.23015  -11.72770    9.76651
       H    15.98725  -12.77802    6.08554
       O    15.89464  -12.91914    5.11609
      H1    16.55696  -12.27623    4.75704
       H    14.09821   -9.40988    6.41143
       O    14.54006  -10.11666    5.91555
      H1    15.19033  -10.49323    6.56980
       H    13.73690  -13.33617    9.85377
       O    13.63694  -12.48107    9.46798
      H1    12.76943  -12.43586    9.05529
       H    13.15306  -11.27323    4.00208
       O    12.43363  -10.65498    4.36342
      H1    12.97159  -10.16926    5.03327
       H    16.55590   -6.56657    4.33288
       O    15.65767   -6.94975    4.60607
      H1    15.82967   -7.36779    5.45439
       H    14.60232   -8.63171    9.84846
       O    15.03106   -9.07693    9.11204
      H1    14.50238   -9.80910    8.75182
       H    16.49640   -4.50739   10.09033
       O    17.05111   -3.69238   10.23475
      H1    17.66846   -3.82217   10.95038
       H    14.58738   -4.96246    8.94286
       O    15.23917   -5.53160    9.41203
      H1    15.69434   -5.97981    8.66707
       H    15.29510  -12.26689    7.98559
       O    16.00899  -11.77228    7.54220
      H1    16.76025  -11.50064    8.16034
       H    12.06059   -7.58053    7.02498
       O    12.52332   -8.03923    6.31837
      H1    11.82904   -7.87294    5.55190
       H    15.50776   -7.69228   14.13996
       O    15.97453   -7.23411   13.39932
      H1    16.12518   -6.33504   13.76267
       H    13.72270  -10.78483   12.34856
       O    13.39828  -11.60518   11.99987
      H1    13.69604  -11.70658   11.05777
       H    18.84570   -8.39405    6.66039
       O    18.67435   -7.82454    7.39830
      H1    18.90775   -6.97246    7.11275
       H    17.80007   -9.59369   14.27939
       O    17.94533  -10.19067   13.55747
      H1    17.29849   -9.99314   12.80066
       H     9.90266   -6.65456    8.47981
       O    10.76111   -7.12591    8.41847
      H1    11.00376   -7.22115    9.37544
       H    18.55659   -7.25202   11.08570
       O    18.45760   -6.49999   11.69222
      H1    17.91505   -6.74723   12.45942
       H    15.45176   -7.93120    7.95290
       O    15.88719   -7.24251    7.41227
      H1    16.79771   -7.60588    7.51914
       H    15.76443  -11.24209   11.20975
       O    16.20059  -10.37189   11.29306
      H1    16.12270   -9.97367   10.41303
       H    18.97996   -8.25486    9.18158
       O    19.00546   -8.39458   10.10398
      H1    18.45834   -9.12709   10.27413
       H    10.49081  -12.42851    9.07824
       O    11.12067  -12.32636    8.34643
      H1    10.89503  -12.96634    7.64903
       H    10.25259   -8.98627    8.30419
       O     9.69788   -9.80741    8.23712
      H1    10.34098  -10.54150    8.04461

