72
frame 2 | Written by MDAnalysis XYZWriter (release 2.4.3)
       H    -5.45709   -7.93392   -2.24116
       O    -5.23954   -8.09849   -1.30130
      H1    -4.83227   -7.32617   -0.92967
       H    -6.43159   -8.04583    1.80050
       O    -7.26360   -7.55859    1.50243
      H1    -7.57735   -7.85139    0.61746
       H    -8.65301  -14.26951   -5.78854
       O    -9.25252  -13.51729   -5.98313
      H1    -9.53890  -13.30425   -5.13637
       H    -9.26858  -13.14843    2.87750
       O    -8.89091  -12.26813    2.94895
      H1    -8.37857  -12.30561    2.11539
       H   -11.24827  -13.18087    0.19175
       O   -10.48994  -12.71563   -0.15690
      H1   -10.77459  -11.81381   -0.47541
       H    -3.22251  -11.15315   -2.90740
       O    -2.78297  -11.21102   -3.79236
      H1    -2.88126  -10.34661   -4.18822
       H    -4.91401  -11.27461    0.60162
       O    -4.75172  -11.11437    1.53905
      H1    -4.97410  -11.91126    2.05497
       H    -9.62326  -14.67962   -3.14585
       O    -9.33887  -13.87687   -2.71408
      H1    -9.75053  -13.87527   -1.85922
       H    -4.24134  -13.78349   -6.59700
       O    -4.54562  -14.65834   -6.32612
      H1    -4.74129  -14.61366   -5.38126
       H    -4.68157  -14.83881   -0.71223
       O    -4.08661  -14.33484   -1.30469
      H1    -3.27969  -14.89514   -1.38742
       H    -7.07139   -6.96209   -4.28884
       O    -6.39068   -7.47462   -3.89895
      H1    -6.23637   -8.17557   -4.52383
       H    -8.66405   -8.97876   -1.10235
       O    -8.01418   -8.25682   -0.92571
      H1    -7.16117   -8.48156   -1.23182
       H    -8.32960  -10.33082   -5.57494
       O    -7.46989  -10.28083   -5.14731
      H1    -7.51119  -10.62655   -4.28326
       H    -6.14858  -14.10463   -3.44446
       O    -5.42674  -14.66655   -3.59309
      H1    -4.86963  -14.51828   -2.77513
       H    -9.20571  -10.60571   -2.26955
       O    -9.96688  -10.29552   -1.77385
      H1   -10.31487   -9.48100   -2.22283
       H    -7.78838  -12.64507   -2.59927
       O    -7.56804  -11.73190   -2.52158
      H1    -6.66221  -11.79935   -2.19130
       H    -4.64932  -10.96972   -1.20149
       O    -5.24016  -11.73950   -1.07786
      H1    -4.67572  -12.50444   -0.85965
       H    -7.09091  -15.71564   -0.77544
       O    -6.62360  -15.07158   -0.22343
      H1    -7.16378  -14.32274   -0.03709
       H    -7.37364  -12.03805   -0.21153
       O    -7.76510  -12.62973    0.42526
      H1    -8.74637  -12.58531    0.31489
       H   -12.82053  -11.59969   -3.10472
       O   -12.04668  -11.96423   -3.56674
      H1   -11.25972  -11.70493   -3.02718
       H    -8.16905  -17.23239   -2.29413
       O    -7.30922  -16.84203   -2.19868
      H1    -6.94815  -16.59549   -3.06629
       H    -6.25752  -10.54599   -6.82295
       O    -5.64050  -10.48813   -7.54466
      H1    -6.07335  -10.95304   -8.26247
       H    -5.19029   -9.62876    2.30217
       O    -5.19664   -8.74470    2.68375
      H1    -5.53234   -8.73336    3.56600
       H    -3.78253   -8.95819   -1.28659
       O    -3.39138   -9.78366   -1.49930
      H1    -2.66069  -10.03047   -0.92209

