72
frame 0 | Written by MDAnalysis XYZWriter (release 2.4.3)
       H    -5.51197   -8.80408    5.63032
       O    -6.10040   -8.15842    5.24421
      H1    -6.87330   -8.66249    5.05066
       H    -4.73799   -7.50878   -2.86660
       O    -4.60620   -7.99083   -2.02873
      H1    -4.60138   -7.25793   -1.35677
       H    -7.45684   -7.81567    2.44221
       O    -8.03462   -7.11317    2.06419
      H1    -7.99618   -7.35725    1.09573
       H    -6.83146   -4.69838    5.73485
       O    -7.77100   -4.78291    5.80449
      H1    -8.13918   -4.56671    4.96934
       H    -9.93120   -8.03652    2.49154
       O   -10.55659   -7.99888    3.22577
      H1   -10.87180   -8.90870    3.39261
       H    -9.26408   -5.07585    2.82187
       O    -9.20123   -4.41820    3.51217
      H1    -9.21400   -3.60282    2.97181
       H    -9.69841  -12.85108    4.48271
       O    -9.19491  -12.41115    3.77613
      H1    -9.08718  -13.02569    3.02752
       H    -5.58871   -6.13149    5.28454
       O    -5.07481   -5.30766    5.23633
      H1    -5.05235   -4.92560    4.36833
       H    -8.46367   -5.27136   -0.43969
       O    -8.93026   -4.49050   -0.16542
      H1    -8.23732   -3.96279    0.29156
       H   -11.43433  -10.48885    4.97597
       O   -11.15141  -10.52585    4.03737
      H1   -10.52484  -11.29903    3.95996
       H    -5.52037  -11.68781    0.92076
       O    -5.93558  -11.40426    1.72796
      H1    -5.77594  -12.13234    2.39042
       H   -10.25060  -11.65599    6.46066
       O   -10.18350  -10.73577    6.60018
      H1    -9.42275  -10.49193    6.01596
       H    -8.65744  -10.27107    4.23577
       O    -8.25058   -9.63215    4.85058
      H1    -8.86171   -8.92134    5.03193
       H    -8.64172   -8.01392   -1.28489
       O    -8.09494   -7.42228   -0.70140
      H1    -7.21507   -7.60412   -1.01240
       H    -8.69308   -6.41231    5.50782
       O    -9.55400   -6.89771    5.51104
      H1    -9.71308   -7.21924    4.57457
       H   -11.87962   -5.65952    0.80090
       O   -11.25198   -5.27831    1.44052
      H1   -10.55640   -5.00266    0.83790
       H    -4.76639   -4.28076    2.31941
       O    -3.95391   -4.30035    2.86249
      H1    -3.54627   -3.40771    2.83415
       H    -4.33309  -10.33414   -1.36988
       O    -4.86009  -10.84759   -0.73585
      H1    -4.71056  -11.75731   -1.04272
       H    -4.21186   -8.53092    1.70328
       O    -3.34406   -8.14096    1.64851
      H1    -3.05629   -8.38329    0.75968
       H    -3.92021   -5.38478   -0.23044
       O    -4.84156   -5.65559   -0.31308
      H1    -5.15893   -5.34054   -1.12169
       H    -7.77603  -12.27474    0.98333
       O    -8.41518  -13.00070    1.04387
      H1    -9.11651  -12.80611    0.42337
       H    -5.74935   -9.71788    2.32985
       O    -5.92576   -8.77388    2.48648
      H1    -5.67670   -8.62661    3.42169
       H    -2.62128   -5.18401    2.64171
       O    -1.88244   -5.72074    2.18058
      H1    -2.37600   -6.58619    2.10879
       H    -7.03881   -5.59957    1.85271
       O    -6.43067   -4.89730    1.70226
      H1    -5.97402   -5.09375    0.88796

