72
frame 3 | Written by MDAnalysis XYZWriter (release 2.4.3)
       H     4.92277   16.32267  -14.92462
       O     5.02885   17.23870  -15.14254
      H1     4.24725   17.32572  -15.70971
       H    11.98768   10.53509  -15.76994
       O    11.49501   11.38871  -15.85802
      H1    12.20035   11.98255  -15.47533
       H    12.75195   15.13330  -16.82979
       O    13.02948   16.00807  -17.05120
      H1    13.90302   15.74482  -17.41709
       H     9.56730   14.60248  -13.43495
       O     9.21912   15.18269  -14.11034
      H1     8.82674   14.58014  -14.78384
       H     7.63591   18.70341  -18.10266
       O     7.12741   19.56776  -18.03212
      H1     7.69759   20.18134  -18.51130
       H     7.92983   15.36108  -12.58202
       O     7.07872   15.14749  -12.15115
      H1     6.89929   15.89379  -11.54190
       H    13.43010   12.47778  -11.43358
       O    13.95217   12.95101  -12.12969
      H1    13.68811   13.86858  -12.05297
       H    12.92317   15.98018   -8.76429
       O    13.36553   15.68466   -9.54996
      H1    12.98151   15.92360  -10.39453
       H    10.57364   13.49965  -11.26917
       O    10.26027   13.64347  -12.14970
      H1    10.10087   12.76952  -12.56083
       H    10.36807   18.23567  -14.70663
       O    10.87634   17.38987  -14.97893
      H1    10.24452   16.72682  -14.65217
       H     7.92359   13.09206  -15.94745
       O     7.77985   13.98885  -16.20667
      H1     6.79684   14.05650  -16.27884
       H     8.65145   17.42651  -19.38156
       O     8.71369   17.46986  -18.40919
      H1     9.62312   17.68348  -18.18273
       H    14.30058   12.11310  -15.05363
       O    13.63565   12.72779  -14.86224
      H1    13.76901   12.85752  -13.91825
       H    12.84271   19.88418  -10.56045
       O    13.24032   19.29180  -11.22489
      H1    12.93296   19.49656  -12.12647
       H     9.54640   14.76174  -19.08269
       O     9.30858   14.01773  -18.54916
      H1     8.77675   14.36948  -17.81772
       H    12.55645   16.73291  -18.57490
       O    12.38642   17.13569  -19.42278
      H1    13.25974   17.23828  -19.86456
       H    14.77684   15.55175  -14.38822
       O    14.27057   16.34555  -14.23458
      H1    13.88155   16.32568  -15.07657
       H    10.11340   11.24116  -14.05779
       O     9.33828   11.49047  -13.56001
      H1     9.32189   10.89917  -12.83676
       H    13.54065   19.32257  -14.45715
       O    12.66378   19.35533  -13.95924
      H1    12.16216   18.50391  -14.20279
       H    11.47034   17.82307  -10.06469
       O    10.62474   17.59734   -9.63028
      H1    10.07780   18.29213  -10.04570
       H    11.75449   15.09776  -12.49601
       O    12.62536   15.38696  -12.30949
      H1    13.02796   15.54701  -13.18832
       H    14.88035   18.65163  -16.39152
       O    14.78534   18.26092  -17.28432
      H1    13.91184   17.75839  -17.28569
       H    10.74090   13.13917  -18.38445
       O    11.51699   12.58808  -18.31849
      H1    11.67729   12.34143  -17.36168
       H     9.17043   19.90304  -12.62329
       O     8.77474   19.76783  -11.71794
      H1     8.21960   19.00180  -11.83623

