72
frame 3 | Written by MDAnalysis XYZWriter (release 2.4.3)
       H    17.61555  -11.98654   15.30333
       O    17.64367  -12.59239   16.08891
      H1    16.71842  -12.85097   16.28115
       H     9.40160  -13.81606   14.55397
       O     9.93416  -14.20119   15.26807
      H1     9.33265  -14.88038   15.61082
       H    14.40439  -16.68633   14.31940
       O    14.77142  -16.45331   15.17491
      H1    14.02033  -16.38857   15.79565
       H    12.95219  -13.36068   15.32271
       O    12.40646  -13.59216   16.08572
      H1    11.56715  -13.81356   15.64605
       H    13.15350  -10.84088   15.69121
       O    12.62632  -10.28728   15.08720
      H1    12.08683  -10.83343   14.48388
       H    17.16864  -15.62995   13.43862
       O    17.76459  -15.97451   12.76805
      H1    18.63496  -16.10907   13.19759
       H    11.04568  -15.51442   14.04147
       O    11.20840  -16.44378   13.78537
      H1    11.18017  -16.78648   14.67955
       H    14.56648  -12.29639   17.33434
       O    14.09237  -11.50316   17.10286
      H1    14.73413  -10.80127   17.32245
       H    11.69107  -10.21538   16.76729
       O    11.42275  -10.14296   17.70487
      H1    11.52651  -11.02726   18.02650
       H    10.84941  -12.96697   18.83414
       O    11.75838  -12.75452   18.66902
      H1    11.95370  -12.97517   17.74951
       H    14.92603   -8.36744   15.55780
       O    14.22716   -8.20182   14.84953
      H1    13.69944   -8.99710   14.75839
       H    10.16545  -11.74924   11.98763
       O    10.81956  -11.24339   12.54090
      H1    11.63070  -11.48130   12.04129
       H    14.70604  -13.27688   14.10003
       O    13.78487  -13.21910   13.83870
      H1    13.72022  -12.51108   13.27337
       H     8.03957  -12.01751   13.74769
       O     8.18351  -12.89643   13.51992
      H1     7.53631  -13.19530   12.90289
       H    13.07613  -16.08534   18.00854
       O    13.10075  -15.96375   17.03814
      H1    12.80613  -15.02146   16.81999
       H    14.42258  -15.56336   10.83710
       O    14.59596  -14.99472    9.98856
      H1    15.44722  -14.53088   10.15681
       H    15.50903  -13.96581   18.22349
       O    15.30577  -13.95266   17.31442
      H1    14.50653  -14.49072   17.12154
       H    10.49556  -18.23575   16.50796
       O    11.31535  -17.94829   16.06112
      H1    11.65252  -17.27640   16.65023
       H    14.31464  -11.88564   11.41212
       O    13.38613  -12.14955   11.45364
      H1    13.07301  -12.16360   10.55751
       H    12.53644  -15.71794   12.56194
       O    13.48474  -15.62486   12.60374
      H1    13.61556  -14.63310   12.75525
       H    17.03407  -14.15169   15.25871
       O    16.50771  -14.62783   14.63991
      H1    16.09606  -15.29837   15.22450
       H    17.46078   -9.63124   14.21290
       O    17.42718  -10.57870   13.93094
      H1    16.69282  -10.57304   13.35470
       H     8.20894   -9.40140   17.05325
       O     8.65104  -10.28451   17.01983
      H1     9.59512  -10.06554   17.19201
       H    15.76142  -17.40085   16.29189
       O    16.42440  -17.69473   16.92708
      H1    16.99719  -16.92320   17.07063

