72
frame 3 | Written by MDAnalysis XYZWriter (release 2.4.3)
       H    14.64468    5.59038   18.56198
       O    14.28705    5.20368   17.77421
      H1    14.46916    5.87065   17.09874
       H    15.61054    5.38758   11.78819
       O    15.12509    6.24186   11.81351
      H1    14.32267    6.08144   12.28968
       H    10.82637    8.07203   17.82074
       O    10.32303    8.12486   18.60153
      H1    10.49775    9.00491   18.86407
       H    11.60453    7.24771   15.24543
       O    10.88394    7.28303   15.87488
      H1    10.79866    6.37975   16.23800
       H    12.44565   14.12778   16.31526
       O    13.23618   14.10385   16.93997
      H1    13.07592   13.31679   17.50086
       H     8.98445   12.10003   17.08496
       O     8.31596   11.45444   16.77708
      H1     8.67991   10.93549   16.05675
       H     9.68320    9.39106   13.02465
       O    10.22969    9.44479   12.23120
      H1    10.27345    8.58105   11.84701
       H    14.77563   10.05976    9.16773
       O    15.02203    9.47118    9.97154
      H1    14.79425    8.57985    9.61190
       H    13.51860    7.70503   14.69655
       O    12.86183    8.14093   14.06031
      H1    12.74406    9.02112   14.49169
       H    14.06171   10.24945   11.80302
       O    13.36928   10.60867   12.35959
      H1    12.59462   10.06162   12.39285
       H    10.81382   14.94092   14.70058
       O    11.14796   14.07472   15.00734
      H1    11.84239   13.92175   14.33554
       H     9.73883    8.69425   15.32711
       O     9.06774    9.26540   15.00956
      H1     8.19816    8.88252   15.29315
       H     9.70520   13.29012   13.61740
       O     8.79133   13.23408   13.17410
      H1     8.03366   13.03988   13.72289
       H    15.35276   10.97334   15.05321
       O    15.22447   10.11299   14.61217
      H1    14.65030   10.34094   13.87346
       H    11.44836    6.05793   11.84434
       O    10.94394    6.66992   11.25504
      H1     9.99103    6.46578   11.36461
       H     9.43347   12.47453   11.76559
       O     9.89075   12.02346   10.96273
      H1    10.15662   11.19770   11.33119
       H    12.70133   11.87494   19.40516
       O    13.16655   11.99715   18.56377
      H1    14.13416   11.99801   18.65965
       H    16.92805   12.31919   17.95533
       O    16.02789   12.05028   17.74984
      H1    15.68866   12.48155   16.90769
       H    12.56649    6.55717   13.55335
       O    12.67862    5.65048   13.21920
      H1    13.29719    5.23378   13.82213
       H    16.37827    8.60184   14.33262
       O    16.89871    7.81758   14.07122
      H1    16.56424    7.53174   13.24214
       H    15.07715   13.09920   14.41875
       O    15.15996   12.98100   15.37332
      H1    14.43163   13.48824   15.80842
       H    12.51801   13.56645   12.08921
       O    12.90995   13.52993   12.96711
      H1    13.15115   12.57371   12.93150
       H    15.34895    7.02284   15.31036
       O    14.52713    7.07102   15.81413
      H1    14.54789    7.68399   16.53159
       H    12.93390   10.22498   18.01355
       O    12.73780    9.25769   17.85390
      H1    12.96861    8.94724   18.71666

