72
frame 3 | Written by MDAnalysis XYZWriter (release 2.4.3)
       H    19.36014  -11.22893   13.28102
       O    19.86584  -12.04422   13.15501
      H1    19.99217  -12.45284   13.97372
       H    17.61555  -11.98654   15.30333
       O    17.64367  -12.59239   16.08891
      H1    16.71842  -12.85097   16.28115
       H    18.29599  -14.98380   17.78463
       O    18.33496  -15.33401   16.84454
      H1    19.07243  -15.95774   16.94775
       H    14.40439  -16.68633   14.31940
       O    14.77142  -16.45331   15.17491
      H1    14.02033  -16.38857   15.79565
       H    12.95219  -13.36068   15.32271
       O    12.40646  -13.59216   16.08572
      H1    11.56715  -13.81356   15.64605
       H    13.15350  -10.84088   15.69121
       O    12.62632  -10.28728   15.08720
      H1    12.08683  -10.83343   14.48388
       H    17.16864  -15.62995   13.43862
       O    17.76459  -15.97451   12.76805
      H1    18.63496  -16.10907   13.19759
       H    14.56648  -12.29639   17.33434
       O    14.09237  -11.50316   17.10286
      H1    14.73413  -10.80127   17.32245
       H    14.92603   -8.36744   15.55780
       O    14.22716   -8.20182   14.84953
      H1    13.69944   -8.99710   14.75839
       H    17.82032  -14.02120   19.87057
       O    18.70139  -14.15236   19.52314
      H1    19.00384  -13.28864   19.15910
       H    14.70604  -13.27688   14.10003
       O    13.78487  -13.21910   13.83870
      H1    13.72022  -12.51108   13.27337
       H    17.45820   -8.99390   19.82179
       O    17.81003   -9.81918   19.34388
      H1    18.69198   -9.91019   19.79203
       H    16.42718   -9.41971   18.14338
       O    15.77959   -9.10542   17.50651
      H1    15.14421   -8.57865   17.98620
       H    15.30813   -7.38256   13.45865
       O    15.85239   -6.87101   12.78714
      H1    15.68514   -5.93604   13.01287
       H    15.50903  -13.96581   18.22349
       O    15.30577  -13.95266   17.31442
      H1    14.50653  -14.49072   17.12154
       H    14.31464  -11.88564   11.41212
       O    13.38613  -12.14955   11.45364
      H1    13.07301  -12.16360   10.55751
       H    12.53644  -15.71794   12.56194
       O    13.48474  -15.62486   12.60374
      H1    13.61556  -14.63310   12.75525
       H    18.13834  -14.16841   10.22130
       O    17.53520  -14.94287   10.22288
      H1    17.41163  -15.26707   11.14811
       H    17.03407  -14.15169   15.25871
       O    16.50771  -14.62783   14.63991
      H1    16.09606  -15.29837   15.22450
       H    17.46078   -9.63124   14.21290
       O    17.42718  -10.57870   13.93094
      H1    16.69282  -10.57304   13.35470
       H    18.90106   -7.85557   14.49102
       O    18.58484   -8.07332   15.38031
      H1    19.36825   -8.48314   15.81871
       H    16.99180  -10.38575   11.10710
       O    16.12832  -10.85606   11.23330
      H1    15.45783  -10.23000   11.00170
       H    19.51809   -7.52534   18.03699
       O    19.39140   -6.71797   18.55856
      H1    18.51916   -6.75532   19.00793
       H    15.76142  -17.40085   16.29189
       O    16.42440  -17.69473   16.92708
      H1    16.99719  -16.92320   17.07063

