72
frame 0 | Written by MDAnalysis XYZWriter (release 2.4.3)
       H     6.55637   -7.48341  -13.96508
       O     5.87335   -8.14314  -13.80079
      H1     6.41238   -8.72397  -13.29719
       H     3.56592   -5.49145   -6.09530
       O     3.37030   -4.74507   -6.69211
      H1     2.91848   -5.01284   -7.51159
       H     7.84894   -5.65831  -14.01211
       O     8.54746   -6.09458  -13.48292
      H1     8.33333   -5.75257  -12.61096
       H     9.73192   -9.49096  -10.76136
       O     9.11241   -8.81282  -10.85258
      H1     9.68093   -8.05459  -10.96281
       H     7.73431   -8.60206   -9.70137
       O     7.05881   -8.55430   -9.02330
      H1     6.37039   -7.96739   -9.40236
       H     1.50521   -6.26215  -12.55962
       O     1.31219   -5.51933  -13.22156
      H1     0.88535   -5.87621  -14.03287
       H     2.75284   -8.84425   -8.65698
       O     2.78687   -7.89867   -8.71570
      H1     2.22187   -7.60398   -9.41836
       H     1.80237   -8.31147  -11.90810
       O     2.35532   -7.53832  -11.58656
      H1     3.31288   -7.71722  -11.75886
       H     5.13217   -6.16423  -10.25936
       O     4.99770   -7.08404  -10.15170
      H1     4.23508   -7.29027   -9.61665
       H     7.54225   -4.92157   -7.03119
       O     7.56254   -4.01351   -7.21341
      H1     6.67832   -3.73370   -7.00008
       H     3.40652  -10.77487   -7.89914
       O     2.68854  -10.49062   -8.50328
      H1     1.82379  -10.62060   -8.06360
       H     7.09466   -3.94648   -9.34620
       O     6.91137   -4.37058  -10.20897
      H1     6.63737   -3.65814  -10.77925
       H     4.04804   -7.86149   -5.81684
       O     3.85693   -7.13520   -5.26704
      H1     2.88285   -7.17310   -5.16658
       H     2.99768   -3.08918  -11.69399
       O     2.41668   -3.05801  -12.46840
      H1     2.21187   -3.97774  -12.72468
       H     1.86103   -7.64636   -7.29799
       O     1.45904   -7.61412   -6.43859
      H1     0.58070   -8.04107   -6.45882
       H     8.47118   -6.65930   -6.58142
       O     7.49132   -6.68194   -6.72388
      H1     7.33398   -7.24770   -7.47442
       H     5.81415  -11.02313   -7.67579
       O     6.26086  -11.00560   -8.49798
      H1     6.36526  -10.08877   -8.73032
       H     4.52151   -3.53713   -6.84565
       O     5.12846   -2.90137   -7.26253
      H1     5.26759   -2.30374   -6.50297
       H     5.94601   -1.69265  -11.46523
       O     6.17263   -2.52851  -11.96620
      H1     5.28095   -2.83886  -12.20171
       H     8.16223   -9.50249  -12.25507
       O     7.61332  -10.17477  -12.80247
      H1     7.36485  -10.81572  -12.12328
       H    10.22449   -4.71274  -11.14474
       O     9.58678   -5.25117  -10.71921
      H1     8.88788   -4.63820  -10.37113
       H     3.76520   -5.69565  -14.66054
       O     4.00157   -6.44121  -15.18845
      H1     4.46379   -6.96584  -14.44971
       H     4.39083   -2.86918   -9.26407
       O     3.84264   -2.62892  -10.00447
      H1     3.36891   -1.80334   -9.75736
       H     2.46137   -3.97070   -9.50594
       O     2.10575   -4.78821   -9.08815
      H1     1.16660   -4.83504   -9.01993

