72
frame 3 | Written by MDAnalysis XYZWriter (release 2.4.3)
       H    16.69976    8.30398   -6.13573
       O    16.44401    8.86398   -6.90030
      H1    15.53404    9.16550   -6.75060
       H    17.71774   14.63698   -5.38727
       O    16.76357   14.64098   -5.30466
      H1    16.29973   14.46927   -6.15983
       H    18.17087   16.77950   -7.66659
       O    17.22810   16.81043   -7.53885
      H1    17.18058   16.47158   -6.64309
       H    17.85651   16.10555  -12.56346
       O    17.41131   16.59486  -11.79647
      H1    17.00822   15.84769  -11.35283
       H    14.89633   10.74740   -4.96715
       O    15.58448   11.43536   -4.82485
      H1    15.36183   11.96763   -4.06193
       H    19.83048   15.72953   -3.89918
       O    19.21824   16.20664   -4.50019
      H1    18.69476   16.82812   -3.93706
       H    15.90893   10.61430   -9.88021
       O    15.81749    9.83970  -10.46374
      H1    14.89685    9.70799  -10.35690
       H    16.06502   12.99611   -9.40941
       O    15.82358   12.20661   -8.93616
      H1    16.57968   11.97078   -8.31137
       H    18.03794   11.92740   -3.70253
       O    17.79202   11.08407   -3.36963
      H1    16.92641   10.87056   -3.81350
       H    12.92317   15.98018   -8.76429
       O    13.36553   15.68466   -9.54996
      H1    12.98151   15.92360  -10.39453
       H    11.40333   16.74015   -6.54796
       O    12.35120   16.47320   -6.72972
      H1    12.34335   15.49222   -6.66356
       H    18.28484   11.45300   -6.72106
       O    18.09625   10.93633   -7.47060
      H1    17.61380   10.14055   -7.13488
       H    16.37306   18.65465   -9.94000
       O    16.75859   18.94402   -9.04526
      H1    16.91969   18.12656   -8.52807
       H    16.08986   12.72962   -1.81082
       O    15.33800   12.79420   -2.40933
      H1    15.16076   13.73372   -2.52302
       H    18.65936   11.97770   -9.26119
       O    18.72023   12.35576  -10.13479
      H1    18.96417   13.24432  -10.03498
       H    15.41308   15.51422   -9.72515
       O    16.25085   15.12107   -9.68073
      H1    16.55849   15.45254   -8.82164
       H    18.69898   15.55664  -10.13676
       O    19.50520   15.01982  -10.25647
      H1    20.08033   15.37632   -9.56636
       H    15.02674   12.56910   -6.06758
       O    14.86037   13.30278   -6.66457
      H1    14.99571   12.94893   -7.54612
       H    13.05458   19.42771   -5.34737
       O    13.70941   18.73974   -5.20484
      H1    13.39569   17.85852   -5.45527
       H    17.77904   11.75303   -1.82584
       O    17.74565   12.37496   -1.07566
      H1    18.23213   12.25018   -0.28905
       H    16.80387   17.62502   -3.45813
       O    17.68013   18.06144   -3.36469
      H1    17.96209   18.48977   -4.19313
       H    15.92767   19.56805   -7.26570
       O    15.90847   19.86266   -6.38977
      H1    15.17145   19.36437   -5.86971
       H    14.93365   16.27115   -4.28724
       O    15.64984   16.37350   -3.68644
      H1    16.35464   15.77464   -4.03866
       H    13.35055   13.63565   -6.22819
       O    12.40880   13.79865   -6.00406
      H1    12.35014   13.79128   -5.06125

