72
frame 4 | Written by MDAnalysis XYZWriter (release 2.4.3)
       H     8.70132  -12.65193    9.79467
       O     9.04460  -13.35266    9.21759
      H1     8.46368  -14.03236    9.52378
       H     6.03964   -9.85123    8.94703
       O     5.93779  -10.33195    9.79591
      H1     6.86513  -10.25541   10.11966
       H     9.59466  -13.40677   13.76427
       O     9.90621  -14.22117   14.20859
      H1     9.15769  -14.40356   14.79722
       H     8.89121  -11.15212   11.57628
       O     8.84443  -10.92201   10.63940
      H1     9.26396  -10.05822   10.47552
       H    12.78644  -14.20670   15.48616
       O    11.98745  -13.86407   15.97850
      H1    11.30474  -13.94080   15.28241
       H    12.39725  -11.03225   15.39545
       O    12.00377  -10.29551   14.88483
      H1    11.77825  -10.69417   14.03561
       H    10.23215  -15.89146   13.39868
       O    10.62860  -16.73842   13.29606
      H1    10.76836  -16.93979   14.23926
       H    13.44308  -13.70038    9.40477
       O    13.36432  -12.72579    9.24606
      H1    12.52790  -12.56748    8.66874
       H     8.48266   -8.18039   13.55431
       O     9.01245   -7.49165   13.11674
      H1     9.46951   -7.97469   12.44016
       H    11.72321   -7.72806   14.83560
       O    10.84797   -7.58507   15.21220
      H1    10.21946   -7.46994   14.43746
       H    14.42905   -8.70838    9.19602
       O    15.03014   -9.34777    8.82415
      H1    14.47241   -9.83619    8.17694
       H    14.28159   -8.12288   15.02774
       O    13.87425   -8.31139   14.17596
      H1    13.34159   -9.12855   14.31416
       H    11.72211  -11.56496   11.41765
       O    11.98846  -10.82285   12.03795
      H1    12.94664  -10.86058   12.15383
       H    10.95166   -9.37406   11.31191
       O    10.30279   -8.72240   10.96702
      H1    10.78359   -7.84644   10.91016
       H    14.69390  -12.33484    8.06424
       O    15.24733  -12.36365    7.26676
      H1    16.16332  -12.22495    7.49573
       H    14.26883  -14.21863   14.25360
       O    13.63375  -13.75795   13.68807
      H1    14.18556  -12.98912   13.27723
       H     8.68986  -11.15541   13.43852
       O     8.81580  -11.97693   12.97723
      H1     7.91662  -12.32830   12.88228
       H    14.45113  -15.52743   10.32749
       O    14.44756  -15.22733    9.43713
      H1    15.34033  -14.86526    9.36101
       H    15.51235  -11.25375   11.57793
       O    14.67073  -11.71118   11.80130
      H1    14.37168  -12.01931   10.89630
       H    13.39792  -16.57323   11.92432
       O    14.06495  -15.90254   12.05057
      H1    13.56167  -15.06779   12.40229
       H     7.89359   -9.65068   15.13161
       O     7.99038   -9.81655   14.16798
      H1     7.07084   -9.71850   13.81265
       H    17.43670  -10.99161   10.11166
       O    17.07189  -10.21456   10.65142
      H1    16.28022   -9.93873   10.21373
       H    10.43275  -12.01413    8.07935
       O    11.33488  -12.17174    7.72290
      H1    11.09365  -13.01014    7.31116
       H    11.28001   -8.81737    8.51159
       O    10.75434   -9.32341    7.86352
      H1    11.37843  -10.03438    7.69011

