72
frame 4 | Written by MDAnalysis XYZWriter (release 2.4.3)
       H   -13.68319    1.19450   -7.24831
       O   -12.95771    1.01958   -6.62752
      H1   -12.15934    1.05727   -7.21816
       H   -10.24407   -1.12161  -11.09867
       O   -10.46435   -0.58923  -11.87234
      H1   -11.11645   -1.10197  -12.34832
       H   -16.12925    0.55672  -13.66776
       O   -15.33685    0.17462  -13.27854
      H1   -14.73518    0.10737  -14.03569
       H    -9.07726   -1.53348   -8.63002
       O    -9.30042   -1.65204   -9.57815
      H1    -8.39844   -1.60135  -10.03964
       H   -15.87363   -3.15737  -11.88064
       O   -14.91232   -3.27423  -11.95901
      H1   -14.72363   -4.08465  -11.44227
       H   -11.44100   -5.76118  -10.06838
       O   -11.91398   -5.65119   -9.21824
      H1   -11.74615   -4.74002   -8.91250
       H   -15.72010   -1.70978   -8.83640
       O   -15.46951   -2.64720   -8.99975
      H1   -15.08534   -2.60193   -9.88375
       H   -15.53363    1.29697  -11.73294
       O   -15.74084    2.11888  -11.19781
      H1   -16.53751    2.48641  -11.63181
       H   -13.44250   -0.06146  -10.32780
       O   -12.57922   -0.25196   -9.99133
      H1   -11.99006   -0.06467  -10.82261
       H   -13.57266   -2.20761  -12.70218
       O   -12.77010   -1.82560  -13.08212
      H1   -13.06598   -1.40348  -13.91590
       H   -11.60698    4.46251  -10.42710
       O   -11.99419    3.80788  -10.99220
      H1   -12.77543    4.19493  -11.36147
       H    -7.22129    0.80508  -12.84439
       O    -7.62642   -0.05554  -12.96554
      H1    -8.56968    0.03849  -12.81747
       H   -10.85032    3.02042  -12.20591
       O   -10.08147    2.54690  -12.62033
      H1    -9.55088    3.17958  -13.13501
       H   -15.79253    3.46839   -7.14379
       O   -15.05163    3.11719   -7.60761
      H1   -14.35001    3.70426   -7.31371
       H   -12.26780   -1.32647   -4.37922
       O   -12.19455   -1.41719   -5.35202
      H1   -12.55984   -0.63732   -5.70883
       H    -9.45484    2.73036  -11.10749
       O    -9.25018    2.86656  -10.14078
      H1    -9.83365    2.16358   -9.71402
       H   -11.51083   -3.22731  -13.62648
       O   -10.73183   -3.65837  -14.07344
      H1   -11.01339   -4.53746  -14.41583
       H   -18.25859   -0.01887   -7.11732
       O   -17.84981   -0.50196   -7.79035
      H1   -17.08226    0.03478   -8.17437
       H   -16.12158    1.16424   -9.56242
       O   -15.87119    0.76020   -8.74883
      H1   -15.74942    1.48579   -8.13350
       H    -8.54322   -0.81691   -6.83116
       O    -9.53422   -0.75820   -6.86234
      H1    -9.96284   -1.50413   -6.37723
       H   -10.34412    0.50580  -15.41708
       O   -10.84749    1.23423  -15.02749
      H1   -10.62827    1.25901  -14.08607
       H   -11.92394   -2.21566   -8.60319
       O   -11.79513   -3.09876   -8.17956
      H1   -12.00043   -2.94938   -7.25674
       H    -8.95431   -3.35490   -6.10117
       O    -9.79047   -3.67460   -6.46501
      H1   -10.07315   -3.33679   -7.35751
       H   -11.56992    0.73356   -9.04485
       O   -10.77012    1.17766   -8.64023
      H1   -10.18907    0.50233   -8.27058

