72
frame 5 | Written by MDAnalysis XYZWriter (release 2.4.3)
       H   -12.07755  -13.44814  -16.52413
       O   -12.42072  -12.57414  -16.71819
      H1   -12.72337  -12.18822  -15.92800
       H   -16.82108   -6.37544  -13.97665
       O   -17.40689   -5.66965  -13.65071
      H1   -18.13952   -6.06494  -13.09604
       H   -15.43413  -14.11015  -18.63296
       O   -16.12473  -14.03065  -19.33102
      H1   -15.74748  -13.54538  -20.09492
       H   -14.07902   -9.96936  -12.07939
       O   -14.67731   -9.75397  -12.80154
      H1   -14.77601   -8.83810  -13.05270
       H   -14.88997  -10.60271  -14.22806
       O   -14.77255  -11.10337  -15.05354
      H1   -15.69224  -11.30067  -15.40484
       H   -16.43625   -7.83103  -17.96649
       O   -17.18131   -7.30388  -17.70626
      H1   -17.95584   -7.67487  -18.09806
       H   -11.09800   -8.55924  -19.11564
       O   -10.13645   -8.24510  -19.09272
      H1    -9.64395   -9.05782  -18.94707
       H   -15.80102  -10.31799  -17.52261
       O   -15.11529   -9.69042  -17.26830
      H1   -14.86958   -9.88867  -16.34129
       H   -11.57700   -7.38766  -15.93830
       O   -11.61397   -6.48472  -15.59486
      H1   -11.02468   -5.92684  -16.15936
       H   -19.64020   -7.71396  -19.84669
       O   -19.64823   -7.88471  -18.87296
      H1   -19.87021   -8.83380  -18.74112
       H   -13.74666   -9.79198  -18.36488
       O   -12.90500   -9.56484  -18.80807
      H1   -12.54898  -10.46589  -18.99010
       H   -17.45480  -11.64919  -16.93996
       O   -17.19661  -11.50971  -15.97840
      H1   -17.56843  -10.62541  -15.78608
       H   -15.39625   -7.35390  -15.14077
       O   -15.87895   -7.73151  -14.38856
      H1   -16.68054   -8.10994  -14.81871
       H   -16.27607   -4.59146  -18.83511
       O   -15.36225   -4.34461  -18.65218
      H1   -15.09190   -3.89264  -19.42004
       H   -14.37745   -5.47813  -16.09962
       O   -14.26635   -6.40953  -16.16932
      H1   -13.32680   -6.55343  -15.99844
       H   -12.45817   -8.59959  -13.19207
       O   -12.31959   -7.62620  -13.24881
      H1   -11.90788   -7.53142  -14.10160
       H   -16.56401   -3.25842  -15.70548
       O   -16.47563   -2.83347  -16.53338
      H1   -16.34454   -3.52141  -17.19453
       H   -19.00676   -4.98520  -18.63646
       O   -18.05874   -5.01042  -18.76748
      H1   -17.79109   -5.76962  -18.25628
       H   -19.61766  -10.87387  -13.65767
       O   -18.92529  -10.33080  -13.32770
      H1   -18.22005  -10.94846  -13.04721
       H   -14.65602   -3.22884  -16.18941
       O   -13.89723   -3.65816  -15.70057
      H1   -13.52506   -3.12282  -14.95589
       H   -13.78855   -7.76286  -19.21712
       O   -14.10234   -7.05778  -19.78804
      H1   -14.23395   -6.32453  -19.18197
       H   -18.97742   -8.80436  -15.30976
       O   -18.02270   -8.79872  -15.56075
      H1   -17.80267   -8.27350  -16.31484
       H   -17.88874  -11.21994  -19.00692
       O   -18.03505  -12.00116  -18.46464
      H1   -17.57331  -12.66302  -18.96939
       H   -12.14539   -9.59231  -16.94922
       O   -11.84867   -9.14689  -16.14603
      H1   -11.37048   -9.74067  -15.61651

