72
frame 5 | Written by MDAnalysis XYZWriter (release 2.4.3)
       H   -10.88766  -17.02975   -8.86127
       O   -10.26791  -16.71832   -9.53244
      H1    -9.65534  -17.45930   -9.60964
       H   -18.58201  -12.76220  -11.26617
       O   -17.79679  -12.32816  -11.63610
      H1   -17.35542  -11.83342  -10.92061
       H   -14.77922  -17.70289   -7.90229
       O   -14.23070  -18.50279   -7.78498
      H1   -14.06544  -18.77003   -8.69852
       H   -17.49054  -15.37056   -7.63678
       O   -16.66668  -15.75733   -8.05439
      H1   -16.84150  -15.44305   -8.94122
       H   -17.66476  -15.15787   -4.20408
       O   -18.60669  -15.01375   -4.17147
      H1   -19.09638  -15.85956   -4.01447
       H   -17.73879  -18.97737   -7.13497
       O   -17.54787  -18.38876   -7.90489
      H1   -17.26312  -17.52400   -7.67378
       H   -19.78794  -13.50536   -1.64477
       O   -18.93443  -13.89516   -1.55726
      H1   -18.70296  -14.26582   -2.42381
       H   -18.93829  -15.51668   -0.59510
       O   -18.44578  -16.31554   -0.38482
      H1   -17.64122  -15.87362   -0.00796
       H   -15.75989  -14.81516  -13.06646
       O   -15.32730  -15.08757  -13.84895
      H1   -14.60168  -14.41317  -13.86860
       H   -19.74796  -15.79371   -7.16575
       O   -19.16549  -15.10532   -6.81855
      H1   -18.99011  -15.34220   -5.88063
       H   -12.51985  -19.23501  -10.59458
       O   -13.45162  -19.03406  -10.48012
      H1   -13.53350  -18.37832  -11.17576
       H   -18.09574  -18.53022  -11.72877
       O   -17.31822  -18.20726  -12.19953
      H1   -17.17059  -17.25828  -11.99370
       H   -18.19269  -17.80304   -1.53658
       O   -18.46082  -18.52166   -2.06908
      H1   -18.03260  -19.27391   -1.70054
       H   -14.20848  -13.04561   -4.86271
       O   -13.34697  -13.26969   -5.18554
      H1   -13.09129  -12.52701   -5.72447
       H   -12.41472  -16.67694   -7.03189
       O   -11.50788  -16.84387   -6.93519
      H1   -11.29072  -16.47983   -6.03612
       H   -14.51323  -19.24853   -4.86922
       O   -14.07134  -18.39462   -5.11373
      H1   -13.81634  -18.43542   -6.08543
       H   -19.20463  -19.28205  -15.96517
       O   -19.12344  -18.55013  -15.35995
      H1   -19.20348  -18.92868  -14.47663
       H   -14.21549  -18.27238  -14.27439
       O   -14.16955  -17.68760  -13.48251
      H1   -14.34170  -16.77235  -13.82756
       H   -15.58045  -14.21508  -10.21657
       O   -16.36613  -14.52286  -10.68384
      H1   -16.83726  -13.71825  -10.93087
       H   -12.53188  -17.39690   -1.68483
       O   -12.01786  -17.21091   -2.46881
      H1   -12.15236  -17.99250   -3.01263
       H   -15.05377  -15.34933   -3.59613
       O   -15.70522  -15.53291   -4.33508
      H1   -15.39724  -16.43097   -4.64969
       H   -13.19607  -14.09720   -9.62755
       O   -14.06237  -13.92255   -9.32451
      H1   -14.07788  -14.41933   -8.49343
       H   -13.20174  -14.13825   -3.62025
       O   -13.33957  -14.70197   -2.84448
      H1   -13.12878  -15.58194   -3.20827
       H   -14.88845  -15.38995   -7.08913
       O   -13.89173  -15.56863   -6.98251
      H1   -13.62582  -14.83741   -6.42306

