72
frame 5 | Written by MDAnalysis XYZWriter (release 2.4.3)
       H    -4.44198   -8.71411    5.65286
       O    -5.15812   -8.10700    5.50309
      H1    -5.79696   -8.19422    6.20634
       H    -7.87585   -9.52854    2.18310
       O    -8.47201   -9.88571    1.53680
      H1    -8.34967   -9.34829    0.71382
       H    -5.72284  -17.52021    5.81071
       O    -4.91893  -16.91241    5.69731
      H1    -5.27079  -16.06809    5.41733
       H    -6.99425  -12.40556    5.62497
       O    -6.74559  -12.18603    4.70393
      H1    -7.60005  -12.45399    4.20472
       H   -10.20247   -9.70339    2.61382
       O   -10.70268   -9.48762    3.43372
      H1   -10.82921  -10.40866    3.80540
       H    -8.02510  -11.10429   10.24764
       O    -7.10069  -11.24414    9.92526
      H1    -7.15563  -11.34565    8.97612
       H    -9.06204  -13.91142    4.13396
       O    -8.98940  -13.14828    3.56219
      H1    -8.78191  -13.44537    2.64481
       H    -3.48851  -10.33418    6.91298
       O    -3.05089   -9.74053    6.28136
      H1    -3.00767  -10.15135    5.38885
       H   -11.22425  -11.58190    5.22124
       O   -11.25765  -11.90423    4.30704
      H1   -10.44691  -12.42381    4.17274
       H    -9.46160  -16.22173    4.23598
       O    -9.44307  -15.54658    4.95762
      H1   -10.44608  -15.62991    5.22094
       H    -7.60217  -16.73866    2.75876
       O    -6.73789  -16.28053    2.75785
      H1    -6.62557  -15.95908    1.80626
       H    -5.34069  -12.19726    1.20866
       O    -5.29624  -12.40564    2.15708
      H1    -5.13294  -13.32685    2.26928
       H   -10.83461  -11.52553    7.00296
       O   -11.10556  -10.62249    6.69956
      H1   -10.34123  -10.17800    6.33850
       H    -8.03256  -10.43048    5.49615
       O    -8.62612   -9.70457    5.42737
      H1    -8.96803   -9.59294    4.57050
       H    -2.91210  -14.71238    6.56913
       O    -3.28147  -13.90016    6.15188
      H1    -3.99723  -14.13531    5.51889
       H    -5.98761  -13.75040    4.27905
       O    -5.49286  -14.57157    4.31698
      H1    -6.00370  -15.16859    3.67704
       H    -3.60754  -10.31164    3.01703
       O    -3.34216  -10.99974    3.67339
      H1    -3.96255  -11.72759    3.55603
       H    -7.54059  -15.67874   -0.74968
       O    -7.12589  -15.15873   -0.04301
      H1    -7.60994  -14.34697    0.15474
       H    -7.88940  -15.29181    8.08826
       O    -6.96871  -15.41252    7.68692
      H1    -6.42869  -15.82460    8.36289
       H    -8.43989  -11.82736    1.31494
       O    -8.64122  -12.60830    0.80971
      H1    -9.24422  -12.21653    0.13902
       H    -3.63433  -11.85358    8.88857
       O    -3.92302  -11.64048    7.97677
      H1    -3.50593  -12.34271    7.46660
       H    -6.92252  -13.53036    7.51502
       O    -6.71110  -12.60852    7.38091
      H1    -5.76184  -12.68032    7.47447
       H    -6.29774  -10.56129    3.72483
       O    -6.33495   -9.65671    3.36905
      H1    -5.99966   -9.19311    4.13848
       H    -7.53835   -7.85246    8.20500
       O    -7.31144   -7.79503    7.21630
      H1    -7.97698   -8.33185    6.76455

