72
frame 5 | Written by MDAnalysis XYZWriter (release 2.4.3)
       H     4.73814   -6.35849    5.32105
       O     4.71577   -5.79238    6.14758
      H1     4.66340   -4.84019    5.85562
       H    -0.49318   -5.39679    5.82898
       O     0.11088   -6.10136    5.72953
      H1    -0.30191   -6.77884    6.30865
       H     1.05784   -5.88089    2.46770
       O     0.32561   -6.40204    2.84252
      H1     0.34138   -6.30910    3.80597
       H     4.72815   -2.58577    8.40008
       O     5.14912   -2.33977    9.24332
      H1     4.70765   -1.45497    9.42934
       H     3.27273   -2.10147    6.71789
       O     3.60415   -3.00196    6.83398
      H1     2.90794   -3.50588    7.30210
       H     0.31328   -3.10389    2.83931
       O     0.96054   -2.80762    3.45849
      H1     0.49771   -2.25318    4.17687
       H     3.77591   -3.40121    5.04584
       O     4.25286   -3.44155    4.17962
      H1     3.72880   -3.96951    3.52583
       H    -0.08544   -8.54980   12.43223
       O     0.55362   -7.88178   12.67592
      H1     1.33824   -8.20358   12.15233
       H     0.11488   -3.24094    8.10875
       O    -0.59277   -2.57364    8.18691
      H1    -0.45297   -2.03586    7.43336
       H    -1.73025   -5.60820    8.86401
       O    -1.24859   -6.20579    9.53927
      H1    -1.47105   -5.70339   10.28306
       H    -2.34268   -5.62594   12.48871
       O    -1.47615   -5.25302   12.25375
      H1    -1.21821   -4.76867   13.09341
       H    -1.13472   -9.31228    6.98293
       O    -0.30724   -8.76522    7.08108
      H1     0.03763   -8.93013    7.96950
       H     3.45266   -5.55857   10.20587
       O     2.66489   -6.13793   10.06590
      H1     2.11702   -5.73874   10.70886
       H    -0.35061   -1.35695   11.02310
       O     0.35656   -1.01285   10.47096
      H1     0.12648   -1.21927    9.57562
       H     5.42817   -7.39999    8.39715
       O     4.80960   -8.08172    8.06504
      H1     4.21731   -7.50226    7.55693
       H     5.06245   -4.00537   12.03402
       O     5.20147   -4.97729   11.93795
      H1     6.14655   -5.23238   11.82878
       H     3.24154   -9.45555   10.81808
       O     2.35198   -8.99182   10.75942
      H1     2.50524   -8.18863   10.23066
       H    -2.51311   -7.46962    8.97149
       O    -3.16060   -8.17275    8.91304
      H1    -3.01487   -8.51860    8.02753
       H    -2.13173   -3.67133    8.07223
       O    -2.50659   -4.56840    7.97797
      H1    -3.41835   -4.56601    8.33465
       H     3.09385   -0.08195    6.15753
       O     2.54105   -0.48111    6.89757
      H1     2.76467   -0.25798    7.76469
       H     1.61392   -4.20433   13.05260
       O     1.95147   -4.31485   13.96601
      H1     1.98529   -5.30305   14.08145
       H    -3.24584   -4.71403    5.15454
       O    -2.32086   -4.57861    5.34934
      H1    -2.21774   -4.65234    6.33883
       H     0.06992   -4.42702   11.46811
       O     0.93248   -4.04802   11.35236
      H1     0.75286   -3.11714   11.08905
       H     1.13215   -4.85702    6.91406
       O     1.40316   -4.38008    7.76933
      H1     1.42598   -5.04467    8.48124

