72
frame 4 | Written by MDAnalysis XYZWriter (release 2.4.3)
       H    14.31854    2.19319  -16.97334
       O    14.86257    2.79345  -17.49985
      H1    14.65076    2.73513  -18.42673
       H    15.65428   -1.40435  -17.06798
       O    15.43397   -0.55844  -16.69928
      H1    15.91715   -0.47824  -15.88828
       H    12.74223    0.54190  -17.26253
       O    13.21400    0.77290  -16.39874
      H1    14.03787    0.26281  -16.52684
       H    13.87371    7.45126  -15.47914
       O    13.79602    8.37341  -15.76914
      H1    13.38827    8.31032  -16.67382
       H    13.19453    4.75798  -13.05247
       O    13.45236    4.32302  -12.24944
      H1    12.91176    4.88557  -11.68987
       H    17.78355   -0.39306  -15.54756
       O    17.31951    0.16734  -14.92147
      H1    17.10200    0.94157  -15.46154
       H    11.84737    5.75647  -14.46003
       O    12.81371    5.62693  -14.53442
      H1    12.85145    5.24381  -15.41771
       H    16.17466   -3.30707  -18.50535
       O    15.46876   -2.86503  -17.97968
      H1    15.02287   -3.62532  -17.52477
       H    13.84504   -2.35491  -14.82197
       O    13.19418   -2.23145  -15.49762
      H1    13.08408   -1.30356  -15.72610
       H    15.13891    4.55544  -17.64905
       O    14.99242    5.56143  -17.54594
      H1    15.30674    5.97588  -18.34781
       H    19.47551   -0.02586  -16.43763
       O    18.95368   -0.70237  -16.87755
      H1    18.81868   -0.35669  -17.76698
       H    18.03593    4.96340  -15.72567
       O    18.43146    4.09949  -15.49995
      H1    17.76138    3.38545  -15.61330
       H    15.12166    1.68156  -13.76961
       O    14.75502    0.85109  -13.43941
      H1    13.79462    0.82452  -13.60486
       H    17.55279   -0.21760  -18.46643
       O    17.75923   -0.53522  -19.34025
      H1    17.79774   -1.52805  -19.24634
       H    16.43623    3.33099  -13.96356
       O    15.74344    3.07070  -14.58169
      H1    14.94964    3.57906  -14.60010
       H    12.02302    2.23884  -16.30328
       O    11.94391    3.12703  -15.86891
      H1    10.95452    3.24275  -15.99435
       H    12.74245    0.03260  -19.29634
       O    11.95688    0.14757  -18.73814
      H1    11.40190   -0.63777  -18.77321
       H    16.24711    6.40807  -16.72554
       O    17.02759    6.82459  -16.28099
      H1    16.70336    7.30635  -15.53728
       H    12.31374    9.38103  -18.30330
       O    12.85607    8.59842  -18.28408
      H1    12.26333    7.86910  -18.46341
       H    16.12681   -2.30590  -14.03341
       O    15.29645   -2.09061  -13.66858
      H1    15.20659   -1.12096  -13.85968
       H    15.72886    6.17818  -12.03848
       O    16.02344    5.26948  -11.96373
      H1    15.22274    4.77585  -12.05511
       H    12.15661    1.97652  -14.60882
       O    12.13853    1.38813  -13.81343
      H1    11.75622    1.98417  -13.18035
       H    18.18476    2.30395  -17.87860
       O    17.51759    1.84907  -17.34528
      H1    16.61797    2.24184  -17.45158
       H    17.85546    1.20242  -13.52098
       O    18.55876    1.68818  -13.03544
      H1    19.34922    1.61287  -13.61180

