72
frame 4 | Written by MDAnalysis XYZWriter (release 2.4.3)
       H     6.43184   -8.19608  -12.51589
       O     6.10103   -9.01277  -12.24093
      H1     6.90208   -9.47939  -11.91278
       H     6.33011  -10.42300   -9.17424
       O     6.72220   -9.56028   -8.98931
      H1     6.23971   -8.81322   -9.34086
       H     6.77957  -13.51183  -12.15187
       O     5.98438  -13.15903  -12.59432
      H1     6.17927  -12.22555  -12.49371
       H     7.75186  -14.11324   -2.69421
       O     7.17213  -14.60729   -3.28973
      H1     7.74430  -14.69543   -4.10877
       H     3.36371  -10.39961   -8.92133
       O     3.43746   -9.55050   -8.48532
      H1     4.24089   -9.13359   -8.85338
       H     7.17940  -17.74514   -9.75363
       O     7.52775  -16.88860  -10.13383
      H1     7.50728  -16.98439  -11.11907
       H     5.64080  -16.82470   -6.36496
       O     5.36578  -16.49089   -5.46545
      H1     4.45481  -16.26682   -5.50902
       H     5.72525  -12.67632   -9.05894
       O     6.58044  -12.66306   -8.57635
      H1     6.43545  -11.97267   -7.84410
       H    11.51033  -12.19768   -8.74916
       O    10.61629  -12.41284   -9.04634
      H1    10.56804  -13.36623   -9.00576
       H     6.68929  -14.37277   -8.05446
       O     6.66569  -15.33572   -7.91837
      H1     6.94732  -15.68902   -8.77179
       H     5.16602  -10.18386   -3.70244
       O     4.85923  -10.92144   -4.26513
      H1     4.83983  -11.75097   -3.79065
       H     2.77266  -12.36354   -8.59077
       O     3.59708  -12.16712   -9.14785
      H1     3.32717  -12.60004  -10.01163
       H     8.57625  -11.73138   -6.49850
       O     9.41333  -12.17689   -6.58151
      H1     9.56534  -12.07497   -7.55687
       H    10.85058  -13.70310   -6.89965
       O    11.06960  -14.61708   -7.16801
      H1    10.22058  -15.00605   -6.83270
       H    10.70092  -15.46851  -10.36821
       O     9.82614  -15.15599  -10.12949
      H1     9.23368  -15.91687  -10.19638
       H     4.29511  -16.30871  -12.19746
       O     4.50046  -15.83800  -11.31946
      H1     5.17183  -15.17098  -11.58820
       H     6.34637  -10.37785   -5.95678
       O     7.00059  -10.74257   -6.52302
      H1     7.15595  -10.09825   -7.32244
       H     3.75477  -13.91271   -8.04013
       O     3.97298  -14.82932   -8.05847
      H1     4.90105  -14.87435   -7.74498
       H     9.22897  -13.46315  -12.41221
       O     8.62074  -13.35641  -11.67105
      H1     9.12252  -13.73136  -10.91116
       H     3.00584  -15.60833   -6.79780
       O     2.52988  -16.17522   -6.16891
      H1     2.46759  -15.72715   -5.28304
       H     9.33690   -7.20145   -8.74866
       O     8.64698   -7.65674   -8.27224
      H1     8.37054   -8.43467   -8.84896
       H     8.93732  -10.13732  -11.70079
       O     8.26018  -10.75794  -11.96413
      H1     8.52651  -11.64789  -11.74583
       H     8.04860  -15.02949   -6.57918
       O     8.63927  -14.81098   -5.85903
      H1     8.90154  -13.87751   -6.05338
       H     2.06457  -13.05577  -12.24717
       O     2.76399  -12.45486  -11.92389
      H1     2.45392  -11.50569  -12.02714

