72
frame 6 | Written by MDAnalysis XYZWriter (release 2.4.3)
       H    -7.26126    0.46027   11.18491
       O    -6.64195   -0.24311   11.02630
      H1    -5.92041    0.01919   11.59097
       H   -12.93712    2.92624   13.50413
       O   -12.45003    2.14026   13.17837
      H1   -12.14311    1.70028   13.97730
       H   -13.97148    3.09559   10.30434
       O   -13.59045    3.33006    9.41115
      H1   -13.11061    2.56824    9.09444
       H    -9.06112    2.99493    6.15633
       O    -8.23964    2.76765    5.68452
      H1    -7.96145    1.93982    6.02561
       H   -10.42105    4.88636    7.21311
       O   -10.14183    4.10288    7.70124
      H1    -9.28255    4.32148    8.06802
       H   -11.48858   -0.61365    4.80272
       O   -10.68663   -0.09336    4.87110
      H1   -10.71809    0.45314    5.66140
       H    -7.66676    2.83436   10.34715
       O    -8.21158    2.26584   10.87322
      H1    -9.07493    2.74796   10.83079
       H    -7.64361    1.73029   14.89317
       O    -6.86721    2.29120   14.86660
      H1    -7.10104    3.16977   14.33695
       H    -8.21070   -4.59457    9.73749
       O    -8.09318   -3.64159    9.93761
      H1    -7.18687   -3.40416    9.76208
       H    -8.93024    5.00296   12.77119
       O    -9.55615    5.40253   12.16525
      H1    -9.87111    4.69213   11.54857
       H   -12.77792    0.87265   11.60817
       O   -12.61554    0.37096   10.74871
      H1   -13.17354   -0.37785   10.83660
       H    -7.63200    5.43312    9.41552
       O    -7.64783    4.72290    8.73694
      H1    -6.87746    4.84268    8.23838
       H   -10.46237    2.14741    7.56914
       O   -10.47995    1.25077    7.17579
      H1   -11.12313    0.71947    7.67173
       H   -13.26418   -0.51001    8.68799
       O   -12.54731   -0.48147    7.99107
      H1   -12.24386   -1.38830    7.86388
       H   -11.39864    3.79453    9.96633
       O   -10.84599    3.40881   10.63508
      H1   -11.38251    2.95346   11.25928
       H    -5.82550   -1.77083    9.05657
       O    -5.56823   -2.61787    9.48965
      H1    -5.02500   -2.29561   10.22936
       H   -12.30152   -3.79797   13.49484
       O   -11.44493   -3.32536   13.43153
      H1   -11.40391   -3.10075   12.49665
       H    -9.30688   -0.16440    7.26304
       O    -8.77375   -0.90403    7.07101
      H1    -9.25378   -1.66072    6.87801
       H    -9.20891    0.26960   13.36388
       O    -8.81017    0.53941   14.24222
      H1    -9.54275    0.19676   14.82764
       H    -9.31342   -2.42870   10.65250
       O   -10.11826   -2.17393   11.14472
      H1   -10.19628   -1.22782   10.93500
       H   -10.82233    0.21367   10.22733
       O    -9.91444    0.30783   10.01959
      H1    -9.60714    1.01873   10.57869
       H    -7.30417   -0.29043    8.11321
       O    -6.37579   -0.26471    8.31603
      H1    -6.45353   -0.24727    9.30546
       H    -4.35955    1.41423   13.46095
       O    -5.22979    1.29878   13.04503
      H1    -5.87864    1.71831   13.66308
       H   -11.22473   -2.80834    9.55987
       O   -11.76115   -3.34740    8.97162
      H1   -11.22057   -3.34722    8.13445

