72
frame 6 | Written by MDAnalysis XYZWriter (release 2.4.3)
       H   -13.44566  -19.55158  -17.67194
       O   -12.60772  -19.48915  -18.09534
      H1   -12.09778  -19.19248  -17.34818
       H   -13.55502  -14.97719  -17.72467
       O   -14.08332  -14.15058  -17.86100
      H1   -14.00330  -13.71345  -17.01395
       H   -18.14806  -13.43422  -10.78691
       O   -17.31689  -13.17495  -11.24633
      H1   -17.01490  -12.32236  -10.82802
       H   -14.78833  -15.99288  -18.17043
       O   -14.58925  -16.92306  -18.12822
      H1   -14.31701  -17.16154  -19.04277
       H   -12.35441  -16.88818  -14.06413
       O   -11.42509  -16.64000  -14.26871
      H1   -11.48436  -16.06860  -15.05680
       H   -17.57893  -15.63182   -8.18019
       O   -17.03464  -16.34566   -8.52307
      H1   -16.77150  -16.11225   -9.42239
       H   -18.32476  -13.96602  -16.41618
       O   -19.11769  -14.38750  -16.81775
      H1   -18.90314  -15.28566  -16.52305
       H   -14.10315  -12.95831  -14.81776
       O   -14.06390  -13.60443  -14.06238
      H1   -13.19043  -13.49111  -13.65235
       H   -16.87748  -18.96000   -7.44085
       O   -16.16003  -18.86283   -8.10954
      H1   -16.32623  -17.97480   -8.42717
       H   -17.42449  -18.49910  -18.78287
       O   -17.84482  -18.76510  -19.58951
      H1   -17.82311  -18.07908  -20.24959
       H   -17.95493  -17.47008   -7.23625
       O   -18.41329  -18.13660   -6.70965
      H1   -18.95123  -17.65206   -6.07024
       H   -17.91685  -11.75725  -17.53348
       O   -17.50359  -11.70467  -16.64672
      H1   -17.93288  -10.96271  -16.15753
       H   -16.23898  -14.10112  -17.64965
       O   -16.82678  -14.85382  -17.90778
      H1   -17.73639  -14.73699  -17.53271
       H   -17.14732  -17.82449  -16.62341
       O   -16.53457  -18.31841  -17.18608
      H1   -15.83060  -17.64666  -17.41783
       H   -15.80253  -15.90799  -13.11654
       O   -15.67419  -15.75828  -14.03722
      H1   -15.03152  -15.02632  -14.04990
       H   -19.57583  -15.10176   -7.39592
       O   -18.91883  -14.44263   -7.16329
      H1   -18.67676  -14.65443   -6.23416
       H   -19.00476  -12.00702  -13.59102
       O   -18.62372  -11.39764  -12.93390
      H1   -18.03330  -12.03103  -12.41005
       H   -13.70601  -19.67153  -11.52124
       O   -14.47593  -19.39845  -12.06604
      H1   -14.20359  -18.72089  -12.70465
       H   -17.88478  -17.95292  -10.96909
       O   -17.42527  -18.26731  -11.77362
      H1   -16.51350  -18.49191  -11.54257
       H   -18.14978  -11.11279  -19.45719
       O   -18.53692  -11.99517  -19.24446
      H1   -17.92345  -12.63080  -19.67688
       H   -18.58886  -17.32788  -14.94982
       O   -18.09373  -16.65197  -15.42918
      H1   -17.32062  -16.41777  -14.91349
       H   -18.92479  -19.38539  -15.26602
       O   -19.68591  -18.91141  -14.94881
      H1   -19.67653  -19.26762  -14.06620
       H   -14.26876  -18.52258  -14.75060
       O   -14.01026  -17.82125  -14.16708
      H1   -14.63645  -17.05844  -14.30936
       H   -15.21990  -15.74174  -10.67749
       O   -16.15477  -15.75254  -10.99755
      H1   -16.46202  -14.76005  -11.01368

