72
frame 5 | Written by MDAnalysis XYZWriter (release 2.4.3)
       H    13.38159   -0.22338  -10.72813
       O    12.63609    0.32019  -10.42587
      H1    11.82605   -0.18583  -10.47381
       H    16.95095   -5.43106  -13.68227
       O    16.31409   -6.10093  -13.43076
      H1    15.71083   -5.60676  -12.85414
       H    15.11293   -6.32789  -14.56954
       O    14.48578   -6.40744  -15.28450
      H1    13.80309   -7.02331  -14.95951
       H    18.32940   -0.55165  -14.67709
       O    17.77482    0.21649  -14.51211
      H1    17.75904    0.72266  -15.36681
       H    18.95484   -2.65602   -8.12910
       O    19.34356   -1.72759   -8.07795
      H1    19.43352   -1.47538   -8.99068
       H    14.97521   -2.94745  -14.16527
       O    14.30170   -3.48449  -14.63379
      H1    14.78336   -4.29482  -14.91784
       H    14.66619   -2.16122  -11.67539
       O    14.12769   -1.94806  -10.90175
      H1    13.82069   -2.79200  -10.61894
       H    18.35197   -8.44384  -14.21045
       O    18.57565   -8.46898  -15.15830
      H1    18.27226   -7.71927  -15.64252
       H    19.24060   -6.67294  -12.13232
       O    19.99813   -6.14856  -11.76413
      H1    19.78910   -5.22009  -11.91815
       H    17.42295   -3.12813  -10.56523
       O    17.86278   -3.97031  -10.75483
      H1    17.30701   -4.60495  -10.32508
       H    18.05890   -4.93617   -7.62684
       O    18.75776   -5.56574   -7.83991
      H1    19.05970   -6.07885   -7.05415
       H    16.66463   -1.98758   -8.92278
       O    16.71359   -1.45381   -9.75004
      H1    15.86334   -1.68723  -10.18555
       H    17.82998   -2.71945   -4.29237
       O    17.72379   -2.53119   -5.20548
      H1    17.13721   -1.82898   -5.26868
       H    12.37458   -4.43290   -8.65122
       O    13.28405   -4.15907   -8.58087
      H1    13.44405   -3.82584   -7.70030
       H    15.73833   -8.29398  -10.44129
       O    14.93654   -7.85333  -10.67318
      H1    14.37175   -7.91425   -9.87271
       H    18.14546   -7.00354   -8.65228
       O    17.95604   -7.87196   -9.14064
      H1    18.41281   -7.70274   -9.97373
       H    19.24131   -9.13844  -12.65752
       O    18.54721   -8.41381  -12.62055
      H1    17.75214   -8.69888  -12.20140
       H    13.88333   -6.58313  -11.71425
       O    13.49910   -5.89556  -12.31894
      H1    12.94757   -5.37876  -11.70146
       H    18.68386   -3.29670  -13.57185
       O    18.11089   -4.07192  -13.43396
      H1    17.82621   -4.13139  -12.52290
       H    15.83000    0.64369   -8.44402
       O    15.19505    0.88117   -7.73867
      H1    14.44096    0.30565   -7.90353
       H    19.01367    0.41747  -11.30503
       O    18.98933   -0.29275  -10.65599
      H1    18.04413   -0.30468  -10.37985
       H    16.93884   -2.58598  -13.47622
       O    16.07273   -2.30791  -13.05446
      H1    15.96049   -1.37753  -13.23381
       H    16.95282   -3.32925   -6.62267
       O    16.86134   -3.56216   -7.60139
      H1    16.21403   -4.33815   -7.63152
       H    15.74672   -6.42209   -9.69844
       O    15.65586   -5.62942   -9.16328
      H1    14.70779   -5.36898   -9.22438

