72
frame 5 | Written by MDAnalysis XYZWriter (release 2.4.3)
       H    16.30055   -4.96900   -3.77055
       O    17.21103   -5.03038   -3.35580
      H1    16.93881   -5.11243   -2.44435
       H    12.54529    0.05043   -7.50128
       O    13.05529   -0.68163   -7.87821
      H1    12.91746   -0.56172   -8.87986
       H    18.95484   -2.65602   -8.12910
       O    19.34356   -1.72759   -8.07795
      H1    19.43352   -1.47538   -8.99068
       H    14.66619   -2.16122  -11.67539
       O    14.12769   -1.94806  -10.90175
      H1    13.82069   -2.79200  -10.61894
       H    19.24060   -6.67294  -12.13232
       O    19.99813   -6.14856  -11.76413
      H1    19.78910   -5.22009  -11.91815
       H    14.09675   -4.54919   -5.44392
       O    14.63789   -5.07188   -4.87078
      H1    14.02086   -5.57837   -4.32068
       H    17.42295   -3.12813  -10.56523
       O    17.86278   -3.97031  -10.75483
      H1    17.30701   -4.60495  -10.32508
       H    13.99926   -7.94710   -5.63921
       O    14.63901   -7.78553   -6.34568
      H1    14.83054   -6.84318   -6.19015
       H    18.05890   -4.93617   -7.62684
       O    18.75776   -5.56574   -7.83991
      H1    19.05970   -6.07885   -7.05415
       H    16.66463   -1.98758   -8.92278
       O    16.71359   -1.45381   -9.75004
      H1    15.86334   -1.68723  -10.18555
       H    17.82998   -2.71945   -4.29237
       O    17.72379   -2.53119   -5.20548
      H1    17.13721   -1.82898   -5.26868
       H    12.37458   -4.43290   -8.65122
       O    13.28405   -4.15907   -8.58087
      H1    13.44405   -3.82584   -7.70030
       H    12.31855   -3.15306   -6.14934
       O    13.21392   -2.79316   -6.21230
      H1    13.11446   -2.06881   -6.85889
       H    19.11698   -7.59437   -2.65775
       O    18.51164   -7.42834   -3.32893
      H1    18.06668   -6.56432   -3.14200
       H    15.73833   -8.29398  -10.44129
       O    14.93654   -7.85333  -10.67318
      H1    14.37175   -7.91425   -9.87271
       H    19.63552   -0.57700   -4.46455
       O    19.08326   -0.11681   -3.80415
      H1    18.23842    0.15025   -4.21774
       H    15.65885    0.02105   -6.09744
       O    15.95959   -0.30567   -5.21472
      H1    15.10750   -0.40897   -4.79915
       H    18.14546   -7.00354   -8.65228
       O    17.95604   -7.87196   -9.14064
      H1    18.41281   -7.70274   -9.97373
       H    13.07677   -0.83404   -3.87909
       O    13.87680   -1.38331   -4.02330
      H1    13.62780   -1.92392   -4.78878
       H    18.68386   -3.29670  -13.57185
       O    18.11089   -4.07192  -13.43396
      H1    17.82621   -4.13139  -12.52290
       H    15.83000    0.64369   -8.44402
       O    15.19505    0.88117   -7.73867
      H1    14.44096    0.30565   -7.90353
       H    19.01367    0.41747  -11.30503
       O    18.98933   -0.29275  -10.65599
      H1    18.04413   -0.30468  -10.37985
       H    16.95282   -3.32925   -6.62267
       O    16.86134   -3.56216   -7.60139
      H1    16.21403   -4.33815   -7.63152
       H    15.74672   -6.42209   -9.69844
       O    15.65586   -5.62942   -9.16328
      H1    14.70779   -5.36898   -9.22438

