72
frame 5 | Written by MDAnalysis XYZWriter (release 2.4.3)
       H   -15.59050   12.22934    2.50012
       O   -16.30033   12.63045    2.96547
      H1   -16.53094   13.40279    2.37749
       H   -12.07295   10.56611    3.74006
       O   -12.59676   11.36163    3.60217
      H1   -13.03589   11.28629    2.72906
       H   -11.84764   17.09131   -2.12379
       O   -12.24061   17.10603   -1.20994
      H1   -11.49683   16.80385   -0.66358
       H   -11.97245    9.03404   -0.48439
       O   -11.10754    9.12297   -0.88569
      H1   -10.66029    8.24971   -0.67660
       H   -13.91384   16.04524   -1.14577
       O   -14.56516   15.30040   -1.16608
      H1   -14.97261   15.25511   -2.06023
       H    -8.12592   10.47388   -0.04136
       O    -8.90818   10.86232    0.27378
      H1    -9.58953   10.17083    0.26294
       H   -12.87250   14.37608   -4.22292
       O   -13.10843   14.83387   -5.03736
      H1   -12.52590   14.48297   -5.71756
       H   -12.58033   18.59707    0.83864
       O   -11.80106   18.71247    1.40705
      H1   -11.69684   17.99657    2.05079
       H   -10.37464   16.03115   -3.46988
       O   -10.85891   16.85724   -3.39109
      H1   -10.12323   17.53612   -3.22461
       H   -16.44584   14.70085    0.57902
       O   -16.78731   14.78879    1.45657
      H1   -17.72338   14.64391    1.26923
       H    -8.81611   13.03335    2.62740
       O    -8.54255   12.05549    2.68946
      H1    -8.67828   11.56268    1.86080
       H   -13.55639   12.20860    0.87921
       O   -14.03830   11.49906    1.32673
      H1   -14.08375   10.67136    0.85007
       H   -15.25423   12.40659   -1.59364
       O   -14.35943   12.14689   -1.86061
      H1   -13.80567   12.44899   -1.09420
       H   -10.59277   16.02880    3.25325
       O   -11.05344   16.82090    3.53828
      H1   -11.77054   16.45893    4.08903
       H   -14.22341   10.34182   -2.39200
       O   -14.26001    9.45652   -2.71357
      H1   -15.21288    9.38230   -3.05051
       H    -9.21077   12.54795   -0.20702
       O    -9.31507   13.50655   -0.42238
      H1    -9.13972   13.60214   -1.38546
       H   -11.85004   12.18482   -3.35228
       O   -12.13836   13.05381   -3.15377
      H1   -12.97821   12.83264   -2.78089
       H    -9.78904   14.00192    3.48456
       O    -9.32227   14.69354    3.05785
      H1    -9.58116   14.69468    2.12172
       H   -11.28758   12.45148    4.14321
       O   -10.68984   13.09448    4.51053
      H1   -10.04953   12.82762    5.19967
       H    -9.86262   10.43189    3.14748
       O   -10.32400    9.78362    3.66146
      H1   -10.14608    8.90821    3.31551
       H   -11.80049   13.56727   -0.22232
       O   -12.72153   13.45550    0.01012
      H1   -13.29477   14.08185   -0.44268
       H    -9.79625   10.06335   -3.96459
       O   -10.69356   10.29213   -3.79777
      H1   -10.81787    9.90286   -2.88788
       H   -10.34662   13.54440   -3.24078
       O    -9.45681   13.75266   -3.00037
      H1    -8.81138   13.21302   -3.54744
       H   -10.04078   14.89756    0.06320
       O   -10.33349   15.70417    0.46654
      H1    -9.49915   16.21743    0.54678

