72
frame 5 | Written by MDAnalysis XYZWriter (release 2.4.3)
       H    14.60141  -13.23590    3.92303
       O    14.00378  -13.00745    3.17383
      H1    13.43697  -13.81451    3.10088
       H    16.42583  -15.11995    0.50533
       O    16.40434  -14.18131    0.20874
      H1    16.66393  -14.15928   -0.76064
       H    11.52101  -14.36134    2.26961
       O    12.02668  -14.83910    2.93773
      H1    12.18883  -15.72024    2.50089
       H    17.57210  -12.99260    0.32860
       O    18.04903  -12.11043    0.26184
      H1    18.85512  -12.27098    0.76141
       H    13.36125  -10.80481   -0.40909
       O    12.71712  -10.14185   -0.78170
      H1    11.98807  -10.63414   -1.13384
       H    17.31069  -10.99412    1.41408
       O    17.28999  -10.32672    2.14889
      H1    16.35217  -10.11658    2.12155
       H    14.07154  -12.52832    1.24148
       O    14.14853  -12.32104    0.28379
      H1    14.97939  -12.74995    0.04030
       H    18.55567  -12.27363    4.26512
       O    17.78728  -11.67963    4.48276
      H1    17.59810  -11.35044    3.60239
       H    16.26841  -13.58959    5.90275
       O    16.04250  -13.71926    4.95411
      H1    16.69313  -13.06686    4.57057
       H    13.35434   -8.73054    6.57188
       O    13.65947   -9.64128    6.57824
      H1    14.62120   -9.58974    6.61125
       H    14.11376   -9.37395    2.67915
       O    14.96678   -9.07964    2.33210
      H1    15.25395   -8.48956    3.09415
       H    12.93818  -11.56619    3.79337
       O    12.51486  -10.82742    4.30890
      H1    13.11178  -10.40648    4.91287
       H    12.72595  -13.24029   -0.35300
       O    11.87425  -13.65384   -0.58810
      H1    11.97609  -14.55283   -0.20716
       H     9.63452  -10.17629    2.65412
       O     9.95463  -10.93125    3.09971
      H1    10.81160  -10.71923    3.47593
       H    15.54914  -13.19683    8.26090
       O    16.29609  -13.35098    7.61324
      H1    16.84922  -12.56846    7.70392
       H    13.66269  -14.99556    8.73160
       O    13.75672  -15.26636    7.82334
      H1    14.60691  -14.97484    7.64444
       H    17.33415  -16.62958    4.95150
       O    16.73600  -16.29523    4.31152
      H1    16.51953  -15.42080    4.60559
       H    11.98701  -16.78180   -0.54197
       O    12.05996  -16.13515    0.14192
      H1    11.17648  -16.05953    0.59125
       H    17.33055  -16.92109    0.85741
       O    16.52611  -16.53913    1.26198
      H1    16.62380  -16.39340    2.23197
       H    13.04978   -7.38637    1.07651
       O    12.25503   -7.90773    1.13178
      H1    12.42979   -8.77852    0.88244
       H    14.46700  -17.81648    2.92186
       O    15.07958  -18.45806    2.41355
      H1    15.81958  -17.89521    2.08915
       H    11.82135  -18.13491    2.43831
       O    12.30574  -17.58269    3.09807
      H1    11.68106  -17.14255    3.58847
       H    10.19748  -12.14026    1.86648
       O    10.15236  -12.95479    1.31518
      H1    10.89565  -12.94955    0.64450
       H    11.27392  -12.58761    7.93759
       O    12.15929  -12.21547    7.97722
      H1    12.54671  -12.28458    7.06067

