72
frame 5 | Written by MDAnalysis XYZWriter (release 2.4.3)
       H    16.27922    5.79035   10.91422
       O    15.54048    6.45742   11.04088
      H1    14.87567    6.04247   11.60947
       H    18.42267    5.51090    9.27306
       O    18.03769    5.37873   10.17078
      H1    18.19063    4.45892   10.13233
       H    18.58020   11.45335   11.16329
       O    19.13904   11.56779   12.01684
      H1    19.38396   10.71122   12.30404
       H    19.13277    6.83926    7.72236
       O    19.44530    5.89038    7.72878
      H1    18.61987    5.29734    7.56373
       H    14.61058   17.23823    9.31865
       O    14.79073   17.10678   10.25685
      H1    15.53762   16.47549   10.22600
       H    15.09401    9.65843   10.04488
       O    15.48750    9.31304   10.84298
      H1    15.33550    8.39388   10.78774
       H    14.03867   10.05818   11.90014
       O    13.28060   10.40934   12.40335
      H1    12.49302   10.08290   12.05841
       H    16.50966   14.34494    9.35112
       O    17.00206   15.17299    9.51695
      H1    17.23539   15.09929   10.40080
       H    17.04420   10.87672    6.03881
       O    17.29296   11.77013    6.28664
      H1    18.10336   11.63459    6.77367
       H    16.61152   12.39063    8.96825
       O    15.83484   13.01133    8.68941
      H1    16.01880   13.24689    7.78503
       H    19.29807   14.71475   13.39719
       O    18.54113   14.05569   13.60087
      H1    18.65672   13.28777   13.07113
       H    14.64727   11.26649   14.91755
       O    14.14585   10.42211   14.98989
      H1    13.59734   10.32020   14.20392
       H    15.00322   11.38663    8.47355
       O    14.59662   10.48384    8.60848
      H1    14.67946   10.10722    7.75206
       H    18.19314   14.57066   15.27017
       O    18.01049   15.07742   16.12424
      H1    17.14106   14.77366   16.44038
       H    15.21882   15.09874   13.14329
       O    14.42358   14.94634   13.66984
      H1    14.02160   14.09439   13.38083
       H    17.44802   12.05601   17.25372
       O    16.85659   11.28818   17.17402
      H1    16.37686   11.46203   16.34937
       H    18.08220   10.21026    9.21249
       O    17.55596   10.88939    9.78568
      H1    16.79453   10.45845   10.11100
       H    18.41952   16.25161    8.82568
       O    18.97288   16.76769    8.17504
      H1    18.37982   17.43872    7.89644
       H    17.99873    7.36055   14.73674
       O    18.85009    7.35573   15.20011
      H1    18.84268    7.63915   16.11322
       H    16.17509    8.67184   14.52761
       O    16.49803    7.93043   14.03247
      H1    16.21947    7.97859   13.10712
       H    16.76517   13.14893   14.30630
       O    15.93394   12.91724   14.72997
      H1    15.46360   13.70951   14.95813
       H    11.97310   13.31486   12.23668
       O    12.37249   12.98405   13.04957
      H1    12.78998   12.21358   12.71542
       H    19.69205    8.92225    8.36910
       O    18.78449    8.59270    8.64386
      H1    18.93640    8.11162    9.44493
       H    16.97635   16.54726   12.28564
       O    16.85158   15.64004   12.24621
      H1    17.61019   15.24010   12.69737

