72
frame 6 | Written by MDAnalysis XYZWriter (release 2.4.3)
       H    -4.36308   13.35769   19.23007
       O    -3.98427   12.65803   18.64950
      H1    -3.43574   12.12837   19.26900
       H     1.02694   14.29148   18.70269
       O     0.20174   14.68557   18.33225
      H1     0.28065   14.98037   17.40259
       H    -5.87437   11.72133   12.93866
       O    -6.66036   11.60946   12.36600
      H1    -6.30808   11.68483   11.44131
       H    -0.75315   10.34562   12.59681
       O    -1.44307    9.77732   12.94037
      H1    -1.54752   10.05292   13.91346
       H    -4.83681    9.82213   12.03974
       O    -4.08779    9.62720   11.48619
      H1    -3.29969    9.71622   12.07228
       H     2.33071    9.59794   14.52033
       O     2.03861    9.45162   15.46988
      H1     2.85238    9.50715   16.01513
       H    -0.80749   13.24680   17.63348
       O    -1.43616   12.55283   17.28497
      H1    -2.15900   12.56476   17.96670
       H    -0.46407   14.81895   15.27188
       O     0.17225   15.43083   15.67968
      H1    -0.30604   16.26147   15.83889
       H    -1.53706   12.53699   14.84721
       O    -0.88177   13.03189   14.36303
      H1    -0.71518   12.50564   13.57810
       H    -6.22639   15.09162   16.36197
       O    -5.47064   15.04645   16.97436
      H1    -4.68149   14.87758   16.45256
       H    -0.60089    5.96268   18.36624
       O    -0.48669    6.36195   17.47897
      H1    -0.09601    7.19475   17.58667
       H    -2.46602    6.23369   14.95094
       O    -2.68406    6.25579   15.90584
      H1    -1.84713    6.22678   16.39839
       H     1.11632    5.88731   15.43682
       O     1.29981    6.30094   14.64654
      H1     1.70638    7.19934   14.87387
       H     1.26766   11.91433   11.97811
       O     0.31705   12.21625   12.10984
      H1     0.01019   12.32359   11.19178
       H    -2.95706   11.04669   15.52830
       O    -2.32499   10.28432   15.57387
      H1    -1.60227   10.53507   16.14656
       H    -4.72911   12.58294   14.49817
       O    -4.81140   11.61198   14.37142
      H1    -5.21696   11.26919   15.16714
       H     0.52836   10.29056   16.78569
       O    -0.19188   10.33477   17.37603
      H1    -0.46239   11.27770   17.30289
       H     0.13671    6.60726   13.23855
       O    -0.08697    7.10400   12.42194
      H1    -0.64340    7.79535   12.75872
       H    -2.62726   14.01084   16.00598
       O    -3.40094   14.19141   15.37013
      H1    -3.07074   14.90507   14.81439
       H     3.14141    9.30556   12.48474
       O     2.62893    9.95645   13.04294
      H1     3.35353   10.52785   13.31223
       H     2.54496   14.51657   14.44802
       O     2.35397   13.56153   14.32902
      H1     1.38205   13.58978   14.44868
       H    -5.44158   11.88489   17.48094
       O    -6.09806   11.40654   16.97368
      H1    -6.71942   12.10793   16.71079
       H    -5.48188    9.90874   16.42565
       O    -5.12130    9.10535   15.95244
      H1    -4.18930    9.26542   15.83560
       H    -4.72870    8.35497   17.82767
       O    -4.47900    8.63394   18.72287
      H1    -5.21628    9.00755   19.18107

