72
frame 6 | Written by MDAnalysis XYZWriter (release 2.4.3)
       H     3.35821   16.85955  -14.90720
       O     3.15563   17.67554  -15.35892
      H1     3.18237   17.49921  -16.29276
       H     5.51983   19.85058  -15.93834
       O     4.55978   19.96991  -16.00923
      H1     4.20941   19.04036  -15.90388
       H     8.46314   18.00262  -17.93558
       O     8.07806   18.72944  -18.35576
      H1     8.80047   19.34054  -18.56709
       H     6.77184   17.38836  -12.90746
       O     6.85669   17.74870  -13.82959
      H1     7.73032   18.14061  -13.88073
       H     0.79557   16.02098  -13.42455
       O     1.17774   15.22894  -13.01103
      H1     1.32924   15.51021  -12.08364
       H     2.57104   15.11534  -13.75061
       O     3.42729   15.25431  -14.14452
      H1     3.52890   14.47368  -14.75289
       H     6.37908   16.52821  -15.30843
       O     6.21502   15.82059  -15.88786
      H1     5.38956   15.85602  -16.31722
       H    -1.00128   16.07526  -18.27309
       O    -0.66204   16.40520  -17.43770
      H1    -0.34490   15.65946  -16.90911
       H    -3.99103   17.33727  -17.84725
       O    -4.32434   16.65274  -17.21644
      H1    -4.71611   16.00841  -17.78888
       H    -0.79575   18.37960  -15.07237
       O    -1.47375   18.88248  -15.51574
      H1    -1.56381   18.27712  -16.29309
       H     7.48604   13.23786  -14.71376
       O     7.71022   14.19184  -14.54573
      H1     7.07594   14.72177  -15.05620
       H     4.08307   17.84851  -12.36660
       O     3.52313   18.63017  -12.19703
      H1     2.74463   18.22332  -11.83637
       H     3.66676   15.11416  -18.21161
       O     4.13189   15.79954  -17.65516
      H1     3.93120   16.68603  -18.07026
       H     9.25108   16.03966  -16.02286
       O     8.88713   16.17677  -16.89009
      H1     7.93343   15.95806  -16.77224
       H     1.47904   17.82337  -14.78345
       O     0.59645   17.58406  -14.38721
      H1     0.51259   18.18798  -13.69037
       H     6.42462   13.43170  -17.01856
       O     6.52327   13.12745  -17.90623
      H1     7.36385   12.63886  -17.88964
       H     0.38759   11.93492  -18.55032
       O     0.30734   12.90853  -18.32939
      H1    -0.26253   12.87861  -17.53627
       H     3.82471   12.44741  -16.71392
       O     3.65772   12.11837  -15.83648
      H1     3.19518   11.25670  -15.96162
       H     1.79638   18.19001  -18.66746
       O     2.76683   18.04841  -18.68848
      H1     3.09551   18.88144  -19.02603
       H    -2.78632   19.27657  -19.09815
       O    -3.29683   18.40844  -19.13502
      H1    -2.64763   17.80731  -19.54046
       H    -1.58033   18.51314  -13.04716
       O    -0.78351   19.00237  -12.68157
      H1    -0.92315   19.88471  -13.03596
       H    -0.02139   17.79146  -18.15696
       O     0.14687   18.64912  -18.57344
      H1     0.36583   19.20075  -17.77679
       H     5.76774   19.01546  -19.77131
       O     5.05292   19.67316  -19.73611
      H1     5.05995   20.17857  -18.86258
       H     2.08596   13.30743  -18.31150
       O     3.06306   13.15538  -18.42683
      H1     3.14072   12.35991  -18.99163

