72
frame 5 | Written by MDAnalysis XYZWriter (release 2.4.3)
       H    17.94645    4.19973    6.17130
       O    17.96636    3.81586    7.11227
      H1    17.04251    3.67336    7.42881
       H    17.24414    5.81066    5.49385
       O    18.03406    5.52184    5.05088
      H1    18.77800    6.01546    5.35032
       H    13.75571    4.39044    1.94718
       O    14.20512    4.81242    1.16342
      H1    15.13711    4.91764    1.40764
       H    14.74530    3.03246    5.38410
       O    14.82837    2.40869    4.60616
      H1    14.18021    2.72779    3.96977
       H    12.71424    5.03729    3.74901
       O    12.65655    4.06768    3.62066
      H1    11.77957    3.77523    3.90934
       H    16.91885    1.53452    1.69661
       O    17.30015    2.30858    1.35854
      H1    18.23195    2.18039    1.21795
       H    15.02719    0.35791   -1.63332
       O    15.83918   -0.20962   -1.77879
      H1    15.78531   -0.59499   -2.64767
       H    14.78462    0.55199    0.02911
       O    14.01906    1.16726   -0.05939
      H1    14.33521    1.97417    0.38705
       H    18.87753    9.05704    2.46930
       O    18.90354    9.34456    3.37729
      H1    19.27064    8.54881    3.84227
       H    16.45733   -0.08281    3.38501
       O    16.42338    0.05438    2.44981
      H1    15.99351   -0.66209    1.98065
       H    16.94097    8.98479    4.34926
       O    16.45834    8.89578    5.19396
      H1    16.34642    7.97558    5.42414
       H    18.57316   10.16871    0.27734
       O    18.77877    9.29599    0.57006
      H1    18.03389    8.84890    0.28715
       H    15.33395    6.61589    6.70534
       O    15.76459    6.54517    5.87348
      H1    15.06981    6.63211    5.23071
       H    18.86905    0.23114    6.71983
       O    18.61948    1.14647    6.56582
      H1    19.48962    1.57986    6.53235
       H    12.42263    1.45644    1.13993
       O    11.76692    1.89659    1.66502
      H1    11.51059    2.73177    1.25802
       H    13.49379    6.82883    3.08283
       O    13.43419    6.58535    4.00682
      H1    12.91127    7.28789    4.43406
       H    16.74407    2.78861   -0.40843
       O    16.26136    3.14252   -1.18932
      H1    16.89281    3.01851   -1.92765
       H    17.54219    5.44727   -2.50589
       O    17.99537    6.28062   -2.33864
      H1    17.72651    6.72643   -3.13657
       H    16.33986    3.67601   -4.11046
       O    17.14820    3.77833   -3.65801
      H1    17.89800    3.68435   -4.29188
       H    17.50255    3.84750    2.01205
       O    17.47874    4.82253    2.16952
      H1    17.57256    5.02342    3.10765
       H    17.08678    0.64704    5.89032
       O    16.30059    0.32707    5.48419
      H1    15.74802    1.11498    5.32633
       H    15.48357    7.65540   -0.60100
       O    14.64308    7.90207   -1.01970
      H1    14.15595    7.05950   -1.15902
       H    14.01966    3.88639   -1.81249
       O    13.33206    4.50330   -1.63239
      H1    13.43563    4.56409   -0.70428
       H    17.21755    6.30110    0.66161
       O    16.91844    6.89106   -0.00603
      H1    17.30978    6.62084   -0.91399

