72
frame 5 | Written by MDAnalysis XYZWriter (release 2.4.3)
       H    17.94645    4.19973    6.17130
       O    17.96636    3.81586    7.11227
      H1    17.04251    3.67336    7.42881
       H    14.71345    2.86840    7.78981
       O    15.20662    3.57373    7.33679
      H1    14.78026    4.39920    7.58417
       H    11.71365   -3.58528    6.61820
       O    12.37866   -3.73765    7.29734
      H1    13.11917   -3.73596    6.75634
       H    14.74530    3.03246    5.38410
       O    14.82837    2.40869    4.60616
      H1    14.18021    2.72779    3.96977
       H    18.90520   -4.15612    6.24890
       O    18.42581   -3.44523    6.62929
      H1    17.71427   -3.74498    7.22564
       H    14.65149   -0.67936    8.55112
       O    15.10383   -1.25370    9.25636
      H1    15.56303   -1.99008    8.75766
       H    16.91885    1.53452    1.69661
       O    17.30015    2.30858    1.35854
      H1    18.23195    2.18039    1.21795
       H    16.24817   -6.45234    3.82878
       O    15.43817   -6.89085    4.09863
      H1    15.64438   -7.43753    4.93365
       H    13.75092   -3.81788    4.34280
       O    13.92686   -3.06401    4.90102
      H1    14.92547   -3.04339    4.94196
       H    16.45733   -0.08281    3.38501
       O    16.42338    0.05438    2.44981
      H1    15.99351   -0.66209    1.98065
       H    16.57562   -1.39890    5.17313
       O    16.67032   -2.34516    4.96475
      H1    17.24102   -2.70424    5.69193
       H    13.69100    0.91676    7.85311
       O    13.98547    0.11501    7.35173
      H1    14.68942    0.44996    6.77101
       H    17.63271    0.87521    8.07823
       O    16.95485    0.83040    8.79516
      H1    16.44113    0.02281    8.78886
       H    15.76468   -4.48254    8.54422
       O    16.25435   -3.68308    8.70876
      H1    16.84248   -3.84575    9.43983
       H    16.90132   -3.08221    0.01048
       O    16.23623   -3.74133   -0.09359
      H1    15.55809   -3.39726   -0.69220
       H    18.86905    0.23114    6.71983
       O    18.61948    1.14647    6.56582
      H1    19.48962    1.57986    6.53235
       H    19.75745   -3.45381    3.85414
       O    18.83902   -3.53209    3.46358
      H1    18.18121   -3.03026    3.97657
       H    13.34156   -1.50110    3.98062
       O    13.04187   -1.02856    3.21362
      H1    12.71824   -0.20682    3.56268
       H    11.77559    0.26838    7.38054
       O    10.85119    0.27098    7.47238
      H1    10.51481   -0.27791    6.74479
       H    15.04091   -2.68713    0.86615
       O    14.81054   -1.73403    1.04275
      H1    14.06372   -1.73339    1.64926
       H    18.96903   -6.84454    2.74638
       O    18.46917   -6.30509    3.41723
      H1    18.47064   -5.44422    2.94906
       H    19.34685   -2.73400    0.23795
       O    19.03757   -3.52968    0.74272
      H1    18.90388   -3.11041    1.62605
       H    17.08678    0.64704    5.89032
       O    16.30059    0.32707    5.48419
      H1    15.74802    1.11498    5.32633
       H    11.59198   -2.39180    9.79922
       O    12.40410   -1.89757   10.07189
      H1    13.17971   -1.97451    9.47446

