72
frame 7 | Written by MDAnalysis XYZWriter (release 2.4.3)
       H   -13.92664   13.67641    3.06268
       O   -14.46457   14.24994    3.57160
      H1   -14.14838   15.14715    3.39200
       H    -8.47920   16.37474    8.71289
       O    -8.90555   16.19124    7.82427
      H1    -8.74952   16.87511    7.14513
       H   -17.72174   18.69165    5.99499
       O   -17.94851   19.62481    6.06397
      H1   -17.65537   19.89722    6.90948
       H   -10.29248   16.05672   12.17613
       O    -9.95232   15.23253   11.85092
      H1   -10.45112   14.87365   11.09466
       H   -12.99775   16.22157    9.86176
       O   -13.64845   16.93849    9.86524
      H1   -13.78890   17.11268   10.83844
       H   -12.60318   18.64327    3.95022
       O   -13.12705   19.13078    4.59261
      H1   -13.73551   18.37238    4.81590
       H   -17.46595   16.93360    9.02316
       O   -17.98948   17.65147    9.33482
      H1   -18.76415   17.57691    8.81859
       H    -9.41936   17.09544    4.82020
       O    -8.79572   17.57435    5.38162
      H1    -7.94086   17.30853    5.05817
       H   -12.40294   18.18529    1.56290
       O   -11.79114   18.24536    2.33393
      H1   -11.42394   17.38648    2.50914
       H   -16.27510   16.69449    5.17010
       O   -17.17340   16.98926    5.00651
      H1   -17.28957   16.94713    4.03004
       H   -13.45270   17.27021    7.17446
       O   -14.33278   17.17427    6.72339
      H1   -14.92350   16.84599    7.45146
       H   -10.11431   15.51832    3.69382
       O   -10.70049   16.20760    3.99020
      H1   -11.38924   15.78079    4.52545
       H   -13.95675   16.90930   12.94438
       O   -14.01111   17.77536   12.55448
      H1   -13.31611   18.23833   13.02203
       H   -12.29356   13.48323   12.44534
       O   -12.80491   13.81389   11.68852
      H1   -13.10792   13.03200   11.20327
       H   -11.62827   14.17625    9.41457
       O   -11.57302   15.12537    9.24602
      H1   -11.18892   15.29143    8.42561
       H   -16.03882   17.95463    2.60670
       O   -15.29024   17.36625    2.72697
      H1   -15.37428   16.62624    2.12870
       H   -12.47085   18.27600    8.95061
       O   -11.74274   18.37102    8.32320
      H1   -11.14464   17.69689    8.57040
       H   -15.82046   20.06828    9.81442
       O   -15.02010   19.77850   10.23457
      H1   -14.93093   18.83646   10.16242
       H   -14.33699   13.32424    5.16037
       O   -14.50399   12.97143    6.01656
      H1   -14.69438   12.04092    5.97127
       H   -16.09622   14.87130    8.77713
       O   -15.98409   15.82401    8.85738
      H1   -15.18350   16.03595    9.40304
       H   -12.52549   14.22140    5.95143
       O   -12.51632   15.22825    5.87673
      H1   -13.28116   15.64815    6.22756
       H   -18.05412   15.78228    5.93075
       O   -18.63809   15.23376    6.47357
      H1   -19.34620   15.84794    6.72548
       H   -14.16454   12.35305    8.86980
       O   -13.47719   11.85698    9.32740
      H1   -13.28980   11.11070    8.73101
       H   -16.72629   12.65281    8.15898
       O   -15.87232   13.10636    8.31502
      H1   -15.44882   13.12266    7.43506

