72
frame 6 | Written by MDAnalysis XYZWriter (release 2.4.3)
       H     9.70681  -12.70705   -0.31161
       O     9.02716  -12.57158   -1.02985
      H1     8.62776  -11.69754   -0.93331
       H    13.77704   -9.83299    1.06775
       O    13.33530   -9.40858    0.34090
      H1    12.62318  -10.11650    0.08178
       H     8.23783  -13.94968   -2.45850
       O     7.84243  -14.59660   -3.00312
      H1     8.37681  -14.62004   -3.85460
       H     6.90717   -9.96758   -1.21063
       O     7.84762   -9.91483   -1.20045
      H1     8.06607   -9.09716   -1.62339
       H    16.20181  -11.57548   -4.15620
       O    15.49285  -12.11908   -3.72947
      H1    15.29062  -11.45810   -3.07693
       H    13.67644  -13.68174   -0.18435
       O    12.82069  -13.83193   -0.59086
      H1    12.45762  -14.56998   -0.11148
       H    10.68471  -12.69308   -8.53888
       O     9.76341  -12.54924   -8.74900
      H1     9.41866  -13.40967   -8.94743
       H    13.56730  -11.74903   -7.87965
       O    14.19166  -11.01785   -7.76822
      H1    15.04626  -11.35091   -8.19401
       H    14.48693   -9.77178   -1.23307
       O    15.06965   -9.84383   -2.00409
      H1    15.84743   -9.34696   -1.75019
       H    12.16854  -12.32236   -4.28599
       O    11.80208  -11.45206   -4.23414
      H1    11.11997  -11.40643   -4.90567
       H     9.37215   -6.29109   -5.17859
       O    10.02848   -6.95058   -5.20277
      H1    10.04941   -7.19358   -6.11471
       H    10.39747  -17.11297   -6.62942
       O    11.21370  -16.58021   -6.47529
      H1    11.02125  -15.72569   -6.17960
       H     8.61058  -11.25775   -6.02868
       O     9.36508  -11.83917   -5.95246
      H1     9.40379  -12.20895   -6.86760
       H    12.67454   -9.63664   -4.12545
       O    13.19574   -8.89750   -3.72555
      H1    13.96786   -9.35427   -3.28337
       H    14.63192   -9.32974   -8.34563
       O    14.84317   -8.36747   -8.49911
      H1    14.62525   -8.01960   -7.63742
       H    14.13042  -14.33730   -5.68666
       O    14.48036  -14.64504   -6.56067
      H1    15.39122  -14.28930   -6.62856
       H    14.15854   -8.00780   -5.03046
       O    14.71016   -7.85340   -5.82325
      H1    14.80276   -6.88341   -5.83960
       H    13.17561  -13.54416   -7.44014
       O    12.48338  -13.07963   -8.05128
      H1    12.78578  -13.47696   -8.91843
       H    13.16846  -14.36041   -3.64938
       O    13.37385  -13.68489   -4.27970
      H1    14.18605  -13.19090   -4.02196
       H     6.47503  -10.74710   -5.91559
       O     6.99019  -10.02137   -6.23184
      H1     6.73152   -9.93066   -7.10971
       H    10.70092   -7.98343   -8.27839
       O     9.78712   -7.73363   -7.91639
      H1     9.36869   -8.59738   -7.86227
       H     8.51725  -14.78857   -6.14772
       O     9.27048  -14.61395   -5.53041
      H1     9.38093  -13.58864   -5.42715
       H    10.26885  -11.41961   -1.50380
       O    10.86815  -10.63727   -1.64577
      H1    11.42279  -10.90377   -2.39676
       H     9.97603   -9.06134   -2.28494
       O     9.65269   -8.11808   -2.46373
      H1     9.69252   -7.93405   -3.37609

