72
frame 6 | Written by MDAnalysis XYZWriter (release 2.4.3)
       H     7.25616   -8.03319  -13.03942
       O     7.12472   -8.95541  -12.84190
      H1     7.94101   -9.37280  -12.47903
       H     6.42615   -5.62916  -13.65663
       O     7.24305   -6.14953  -13.56585
      H1     7.53778   -5.61689  -12.78174
       H     8.00548   -4.97874  -15.20072
       O     7.90559   -4.14307  -15.73602
      H1     7.15284   -3.68426  -15.40409
       H    10.11313   -8.09642  -17.30379
       O    10.02650   -8.56935  -18.12020
      H1     9.82494   -7.89830  -18.78303
       H     5.14558  -11.62029  -14.62042
       O     5.18106  -11.69533  -15.54103
      H1     5.49137  -12.56068  -15.73301
       H     2.86329   -4.13109  -19.20416
       O     3.17708   -5.05291  -19.04002
      H1     3.30258   -5.45937  -19.91005
       H     9.46585  -14.15853  -18.90736
       O     9.30028  -13.22599  -18.98387
      H1     8.41607  -13.01956  -18.69446
       H     4.43262   -5.39125  -17.96287
       O     5.09835   -5.50311  -17.28802
      H1     5.78517   -5.11059  -17.80551
       H     9.11044   -9.98938  -14.30361
       O     9.62432   -9.52714  -14.96822
      H1     9.09489   -9.61638  -15.74902
       H     3.80271  -10.08157  -15.75004
       O     3.24132   -9.28550  -15.69491
      H1     3.71943   -8.81944  -15.01983
       H     1.20610  -13.49181  -16.19026
       O     1.11962  -12.54991  -16.28675
      H1     0.23085  -12.42917  -16.55010
       H     5.65328   -7.71680  -15.01117
       O     6.02835   -7.69543  -15.87837
      H1     5.68301   -6.94258  -16.32553
       H     4.99103   -8.55530  -17.68097
       O     5.11073   -8.80525  -18.62551
      H1     5.89521   -9.36846  -18.64408
       H     3.67837  -13.08445  -18.42837
       O     4.24102  -13.83610  -18.63913
      H1     4.54949  -13.98748  -17.73158
       H     1.88416  -11.63548  -17.79259
       O     2.36678  -11.66578  -18.61143
      H1     2.37037  -10.75808  -18.95723
       H     5.79226  -10.21663  -12.94416
       O     5.07356  -10.84694  -12.93244
      H1     4.27504  -10.32966  -12.66645
       H     7.24151   -9.15036  -16.42687
       O     7.75651   -9.83193  -16.92659
      H1     8.29629   -9.29094  -17.57013
       H     4.49794   -6.55841  -13.96317
       O     4.31855   -7.45888  -13.60298
      H1     4.82850   -7.54519  -12.76843
       H     3.97098   -4.97090  -13.95337
       O     4.79111   -4.89556  -14.49150
      H1     4.61812   -4.94947  -15.44262
       H    10.06222   -7.52845  -15.06131
       O     9.38969   -6.82842  -15.32741
      H1     8.56494   -7.21408  -15.04127
       H     6.68355  -11.31215  -18.01095
       O     6.59304  -12.02242  -18.61088
      H1     5.74379  -12.42908  -18.46695
       H     2.68993   -3.77196  -16.01522
       O     2.15523   -4.52244  -16.35732
      H1     2.66173   -4.85220  -17.10445
       H     0.85303  -10.77520  -14.45308
       O     1.18675   -9.96736  -14.06148
      H1     1.89724   -9.74981  -14.68081
       H     7.94409   -4.30224  -17.58007
       O     7.54775   -4.71459  -18.36226
      H1     7.26370   -4.03460  -18.99805

