72
frame 7 | Written by MDAnalysis XYZWriter (release 2.4.3)
       H     8.17241  -12.00278    8.26086
       O     8.63674  -12.85203    8.06516
      H1     8.09505  -13.45382    8.57447
       H    12.21173  -16.68727   12.25000
       O    12.50622  -16.24879   11.44038
      H1    11.83515  -16.54922   10.76688
       H     6.19980  -18.21103   15.26235
       O     6.47888  -17.48520   14.72078
      H1     5.73401  -16.93488   14.72335
       H     9.03961  -14.09476   13.99369
       O     9.67301  -14.66593   14.43221
      H1     9.20404  -15.11746   15.18321
       H     8.15910  -11.54897   11.13146
       O     7.74998  -11.03267   10.43910
      H1     8.50111  -10.68240    9.98147
       H     5.15208  -13.72760   12.41251
       O     5.97328  -14.15302   12.59245
      H1     6.00440  -14.81822   11.85345
       H    10.58446  -16.02449   14.07931
       O    11.23041  -16.79578   14.06753
      H1    10.83345  -17.45090   13.49806
       H     9.40601  -18.92684   10.33411
       O     9.11050  -19.82129   10.37865
      H1     9.32189  -20.19103   11.25266
       H     5.94940  -11.76849    9.78706
       O     5.23998  -12.34410    9.43061
      H1     5.64931  -13.23263    9.54353
       H     7.04782  -16.78656   11.55865
       O     7.83525  -16.23517   11.71134
      H1     7.99175  -16.41218   12.63241
       H     4.23561  -17.34270    7.66974
       O     4.83981  -17.41018    8.43145
      H1     4.82879  -18.36408    8.69339
       H     3.53143  -19.81789   16.07544
       O     4.22939  -19.25083   15.73860
      H1     4.67169  -18.94921   16.55830
       H     7.82226  -16.61615   15.55991
       O     8.46719  -16.27212   16.19909
      H1     7.98661  -15.73027   16.85682
       H    10.05066  -17.14753    9.47080
       O    10.04465  -17.30804   10.41758
      H1     9.24242  -16.82617   10.76657
       H     7.88551  -12.02598   13.30140
       O     8.41482  -12.71032   12.77864
      H1     7.69944  -13.39581   12.61706
       H     2.83689  -17.94425   12.58424
       O     3.20917  -17.14084   12.16890
      H1     2.77714  -16.89401   11.29706
       H     3.35918  -16.38694    9.27367
       O     2.78262  -15.81973    9.79613
      H1     2.73322  -14.96363    9.29844
       H     7.06325  -15.22723    8.61428
       O     6.89355  -14.63823    9.30296
      H1     7.44258  -14.93614   10.06594
       H     2.78305  -12.90862   11.76610
       O     3.74072  -12.68961   11.72394
      H1     4.06922  -12.71920   10.81800
       H     5.93263  -18.21401   12.69848
       O     5.74211  -18.04156   11.75951
      H1     4.84535  -17.65032   11.73620
       H     8.85954  -16.52366    7.51840
       O     9.72997  -16.75207    7.76905
      H1    10.27308  -15.95169    7.80800
       H     4.91598  -15.28146   13.84051
       O     4.43834  -15.83682   14.45585
      H1     3.67024  -16.13275   13.98316
       H     7.05774  -15.69014    6.41119
       O     7.21952  -16.31822    7.14041
      H1     6.39813  -16.68961    7.45098
       H    11.85424  -19.72057   12.95190
       O    11.11290  -19.20897   12.61745
      H1    11.15765  -19.28006   11.65678

