72
frame 7 | Written by MDAnalysis XYZWriter (release 2.4.3)
       H    -1.90420   13.36581    3.44757
       O    -2.27597   14.27131    3.37844
      H1    -2.89220   14.36694    2.57408
       H    -6.75641   13.54229    7.56407
       O    -6.54055   14.15576    8.28954
      H1    -7.25220   14.80030    8.19812
       H    -8.51814   10.27293    0.76448
       O    -8.14382   11.18791    0.87095
      H1    -8.43215   11.82153    0.14324
       H    -7.61143    8.20395    1.34784
       O    -8.22227    8.09517    0.56372
      H1    -7.65086    7.89461   -0.17308
       H    -8.37743   12.28118    3.34731
       O    -8.02763   11.46788    3.64175
      H1    -8.04300   10.97257    2.81550
       H    -4.38898    9.09195    1.09793
       O    -4.43777    9.34201    1.99506
      H1    -4.75120   10.25975    1.88479
       H    -6.78058    8.13503    3.97548
       O    -6.85124    8.49795    3.11072
      H1    -6.01055    8.98577    2.92092
       H    -4.84909   14.08349    1.99752
       O    -4.17460   14.67897    1.63723
      H1    -4.41619   15.55795    1.92078
       H    -4.80750   11.76824    3.38177
       O    -5.33041   11.96731    2.61162
      H1    -6.25604   11.98761    2.92250
       H    -6.61230   10.56754   -0.31563
       O    -5.79404   10.71863   -0.71934
      H1    -5.59617   11.63062   -0.58100
       H    -1.88112   13.75286    7.01237
       O    -1.19493   13.70331    7.71151
      H1    -0.37120   13.97798    7.25259
       H    -9.85163   13.18812    3.72178
       O    -9.38315   13.85341    3.22324
      H1    -9.96082   14.00895    2.50924
       H    -1.32174    9.08126    2.49342
       O    -1.78642    9.86713    2.24405
      H1    -2.70068    9.56438    2.09018
       H    -0.78549   11.64093    5.07228
       O    -0.60075   11.84253    4.15165
      H1    -0.88335   11.01559    3.63662
       H    -4.89741    9.01797    6.93955
       O    -5.57414    9.14955    7.71121
      H1    -6.31007    8.52213    7.50731
       H    -0.40120   11.07309    1.06542
       O     0.12445   10.91041    0.30012
      H1     0.76240   11.67313    0.34078
       H    -9.12997    9.81107    4.08607
       O    -9.80247    9.14151    3.89443
      H1    -9.28047    8.47635    3.42143
       H    -5.03490   13.33446   -1.50733
       O    -5.50989   13.62682   -0.64360
      H1    -4.90339   13.94212    0.00795
       H    -1.74583   10.22460    7.40790
       O    -1.96008   10.46481    6.45751
      H1    -2.83867   10.88806    6.52904
       H    -6.33570   10.98463    7.59034
       O    -6.70924   11.57358    6.93188
      H1    -7.67924   11.54203    6.98182
       H    -4.20308    5.95083    1.75957
       O    -5.06939    5.84487    2.21424
      H1    -5.39209    6.68899    2.46573
       H    -4.06416   14.40536    6.24983
       O    -3.36044   13.78863    5.97428
      H1    -3.04829   14.08845    5.15831
       H    -3.03366    7.72675    6.48515
       O    -3.41697    8.34310    5.79717
      H1    -2.89608    9.19702    5.80740
       H    -4.02133   12.34391    5.48115
       O    -4.45049   11.52053    5.08463
      H1    -5.30991   11.40012    5.54033

