72
frame 8 | Written by MDAnalysis XYZWriter (release 2.4.3)
       H   -15.83539   -6.13481    9.72007
       O   -16.05806   -6.96555    9.22368
      H1   -16.84753   -6.63484    8.75157
       H   -18.03359   -9.78364   11.73488
       O   -18.07998  -10.75739   11.99878
      H1   -18.91659  -10.81061   12.51560
       H   -16.30649   -5.22051   13.02393
       O   -15.62424   -4.55447   13.17083
      H1   -15.69848   -4.41479   14.13685
       H   -12.85373   -7.80574    8.73918
       O   -13.62364   -8.38686    8.81746
      H1   -14.28362   -7.85888    9.21865
       H   -15.78670   -2.81558   12.72978
       O   -16.02956   -1.93731   12.38406
      H1   -16.99883   -1.83019   12.49751
       H   -17.03252   -8.05767   10.46014
       O   -17.69450   -8.32319   11.08298
      H1   -18.46106   -7.88066   10.71517
       H   -17.82296  -10.51682    8.08311
       O   -17.51796   -9.78705    7.57506
      H1   -17.31224   -9.10187    8.20349
       H   -15.79845   -4.21659   11.17702
       O   -15.27671   -4.29106   10.36493
      H1   -14.37485   -3.99739   10.45083
       H   -17.46284   -6.82501   14.05966
       O   -17.73845   -6.54062   13.16469
      H1   -17.34909   -7.20275   12.55635
       H   -16.75429    0.68642    8.58624
       O   -16.94567    0.34609    9.49818
      H1   -16.28053   -0.36955    9.73380
       H   -19.76085   -9.35837    3.69184
       O   -19.12259   -9.81565    4.23749
      H1   -19.54122  -10.08228    5.05273
       H   -13.19466   -4.00883    4.00708
       O   -13.86633   -3.49204    4.47795
      H1   -14.12885   -4.05715    5.23754
       H   -19.41700   -2.52483   10.11696
       O   -18.90387   -2.75486    9.33794
      H1   -19.12007   -2.15378    8.61521
       H   -14.69237   -1.66084    9.07022
       O   -14.82655   -1.23555    9.92464
      H1   -15.35293   -1.90189   10.43991
       H   -20.12476   -1.94273    6.99153
       O   -19.78345   -1.06395    7.23916
      H1   -18.99184   -1.06475    6.70193
       H   -18.28016   -4.42898    4.73455
       O   -18.30148   -3.71925    4.06040
      H1   -17.40638   -3.81724    3.60618
       H   -17.15064   -1.03234    5.18363
       O   -17.76934   -1.55984    5.69449
      H1   -18.11118   -2.30320    5.12584
       H   -19.12859   -5.91159    8.93721
       O   -18.63493   -5.32804    8.35639
      H1   -18.73146   -4.43325    8.80679
       H   -19.04883   -0.66455   12.21421
       O   -18.83384   -1.46065   12.69339
      H1   -18.77974   -1.23540   13.59871
       H   -15.99036  -10.40728    6.59745
       O   -15.48273  -11.15436    6.30497
      H1   -14.73284  -10.73439    5.82843
       H   -15.87207   -5.44280    5.25649
       O   -16.53139   -5.84569    4.67240
      H1   -16.25411   -5.51857    3.78323
       H   -14.47954   -5.72486    6.94469
       O   -14.69004   -4.92449    6.52528
      H1   -15.14584   -4.38205    7.19119
       H   -18.17406   -6.52489    4.93356
       O   -19.14130   -6.38175    4.90969
      H1   -19.50762   -6.79516    4.13222
       H   -16.75399   -2.33610    6.97945
       O   -16.07192   -2.76354    7.57772
      H1   -16.51799   -2.85875    8.42403

