72
frame 8 | Written by MDAnalysis XYZWriter (release 2.4.3)
       H   -14.44420   15.02578    3.69250
       O   -14.03667   14.93784    4.55747
      H1   -14.41645   15.63772    5.15503
       H   -12.02441   10.63675    3.64991
       O   -12.67313   11.11823    4.19485
      H1   -13.17363   11.70859    3.55867
       H   -16.28317   14.09055    2.69707
       O   -16.48071   13.27773    3.19352
      H1   -15.65329   12.87651    3.15313
       H   -18.27054   11.36103    6.14994
       O   -18.06949   10.99036    7.05561
      H1   -17.96274   11.69762    7.71844
       H   -18.23407   15.42761    2.86795
       O   -19.08669   15.85911    2.88683
      H1   -19.67436   15.17455    3.28365
       H   -13.33374   18.46704    3.26585
       O   -13.99048   18.63305    3.97424
      H1   -14.21228   17.86055    4.47814
       H   -17.87143   18.25860    1.72384
       O   -16.93884   18.50766    2.05025
      H1   -17.11615   19.31970    2.49752
       H   -19.21934   16.86904    1.21796
       O   -18.86185   17.59504    0.68644
      H1   -19.61330   18.08286    0.29279
       H   -17.03946   17.37325    4.48947
       O   -17.75335   17.21508    5.09360
      H1   -18.37278   16.79178    4.50885
       H   -15.23503   15.33227   -1.22670
       O   -15.51414   15.31773   -0.33441
      H1   -16.41084   15.53067   -0.38546
       H   -16.17725   18.28164   -0.38458
       O   -16.09226   18.72800   -1.19635
      H1   -15.19764   18.96217   -1.29978
       H   -13.02485   13.22033    2.22005
       O   -13.86737   12.73373    2.29162
      H1   -14.03912   12.48438    1.33903
       H   -14.33459   17.40104    6.69160
       O   -14.87350   17.04615    6.00204
      H1   -15.77817   17.28733    6.26453
       H   -14.62193   10.01937    1.44567
       O   -14.38856   10.41811    0.54916
      H1   -15.20082   10.50965    0.07058
       H   -16.07465   16.98058    2.18306
       O   -15.96354   15.99595    2.25010
      H1   -15.67587   15.73864    1.34624
       H   -17.98944   12.30129    4.08120
       O   -18.62492   11.90690    4.67187
      H1   -18.89344   11.11082    4.14363
       H   -18.05311   14.10438   -1.84894
       O   -18.18261   13.17025   -2.00193
      H1   -18.12683   13.00916   -3.03414
       H   -14.65324   13.48673    5.59473
       O   -15.22629   12.93415    6.17097
      H1   -15.03095   11.99409    6.02295
       H   -14.81062    9.02415    5.53231
       O   -14.52145    9.92192    5.72453
      H1   -13.86968   10.17898    5.03286
       H   -10.81387   15.86242    6.25265
       O   -11.45924   16.26845    5.71618
      H1   -11.85518   15.46010    5.28284
       H   -18.14470   15.31662    6.08829
       O   -18.77772   14.75695    6.54497
      H1   -19.24475   15.37884    7.07308
       H   -17.76740   16.35236   -2.16786
       O   -18.19691   15.86125   -1.42228
      H1   -18.39421   16.56993   -0.79991
       H   -17.00278   10.56956   -1.58355
       O   -16.33710   11.25822   -1.37900
      H1   -16.80635   12.09690   -1.48503
       H   -11.37511   13.68417    0.49334
       O   -11.33644   14.52324    1.03833
      H1   -10.47094   14.84235    1.12097

