72
frame 0 | Written by MDAnalysis XYZWriter (release 2.4.3)
       H    -6.51489   13.50935   16.22719
       O    -5.99279   14.23564   16.58415
      H1    -6.56659   14.69801   17.16754
       H    -6.70709   11.79192   14.44923
       O    -7.02731   12.02691   15.32440
      H1    -7.92115   11.64999   15.23399
       H    -9.93888   13.22973   15.38106
       O    -9.46397   13.68788   14.71454
      H1    -9.12051   14.47646   15.09929
       H   -10.04058   16.30994   15.97738
       O    -9.09692   16.05188   15.98946
      H1    -8.79006   16.75467   15.38941
       H    -5.93296   10.66617   10.08113
       O    -5.64315   11.54521   10.40460
      H1    -5.76661   11.57619   11.40117
       H    -8.06713   13.82250   12.97850
       O    -7.14079   13.90396   12.65308
      H1    -7.11671   14.06197   11.70313
       H    -6.22807   16.81747   14.68077
       O    -6.53472   17.62985   15.08241
      H1    -5.94808   18.30994   14.67155
       H    -2.38495   16.69159   10.97961
       O    -2.49924   16.84918   10.06038
      H1    -1.93386   16.27626    9.51519
       H    -0.89298   13.46401   15.20706
       O    -1.23191   13.53858   14.33687
      H1    -0.89615   14.40964   14.09181
       H    -6.41097   17.32998   17.32319
       O    -5.94853   17.01156   18.08449
      H1    -5.44245   17.81166   18.32690
       H    -3.59168   16.08898   13.33921
       O    -2.74820   16.35828   12.96984
      H1    -2.19893   16.37841   13.76357
       H    -5.67359   10.41311   12.91457
       O    -5.62730   11.33429   13.06980
      H1    -4.67879   11.49542   13.23795
       H    -5.74637   14.76958   13.72204
       O    -5.18705   15.41275   14.17192
      H1    -5.30994   15.14243   15.11125
       H    -9.29566   18.17179   11.38366
       O    -9.49160   17.46109   12.03812
      H1   -10.39451   17.49093   12.20280
       H    -4.46266   16.64462   16.92396
       O    -3.56725   16.42087   16.71980
      H1    -3.14316   16.07627   17.54408
       H    -2.48353   12.36622   14.21565
       O    -2.95826   11.49197   14.32048
      H1    -3.51545   11.78052   15.11731
       H    -9.00921   18.00019   13.55582
       O    -8.93376   18.31884   14.46099
      H1    -8.04989   18.14780   14.76131
       H    -7.55378   13.90377    8.90127
       O    -7.21575   13.81382    9.78747
      H1    -6.76236   12.97459    9.79411
       H    -6.12761   17.02490    8.77659
       O    -7.06206   16.76089    8.80529
      H1    -6.94446   15.92033    9.31758
       H    -2.00473   19.22440   14.20264
       O    -2.46342   19.08034   13.34840
      H1    -2.55666   18.14339   13.31877
       H    -8.40143   14.92834   17.46188
       O    -8.29654   14.60351   18.35785
      H1    -9.09547   15.01945   18.74271
       H    -2.13643   16.91034   16.00765
       O    -1.27433   17.10418   15.64800
      H1    -1.17933   18.02352   15.87066
       H    -5.76012   10.49311   18.24170
       O    -5.15038   10.82994   17.49014
      H1    -5.69527   11.40237   16.96329
       H    -4.56978   13.83730   18.05514
       O    -4.46208   13.73897   19.03527
      H1    -5.23308   13.29475   19.42244

