72
frame 7 | Written by MDAnalysis XYZWriter (release 2.4.3)
       H    -7.80518   13.46504   14.57156
       O    -8.19200   13.22764   15.46723
      H1    -8.83297   13.81444   15.86859
       H    -8.51068    8.30497    7.24000
       O    -7.72262    7.76110    7.18676
      H1    -7.94743    7.07049    7.77341
       H    -8.47920   16.37474    8.71289
       O    -8.90555   16.19124    7.82427
      H1    -8.74952   16.87511    7.14513
       H   -10.29248   16.05672   12.17613
       O    -9.95232   15.23253   11.85092
      H1   -10.45112   14.87365   11.09466
       H    -6.75641   13.54229    7.56407
       O    -6.54055   14.15576    8.28954
      H1    -7.25220   14.80030    8.19812
       H    -8.27935    9.41860    9.71517
       O    -8.71359   10.11460   10.19515
      H1    -8.54831    9.90255   11.10783
       H    -3.46583   16.38091    8.09826
       O    -2.62364   16.32536    8.53206
      H1    -2.26170   15.38269    8.44265
       H    -8.45110   14.96447   12.73286
       O    -7.64571   14.86840   13.34636
      H1    -7.32686   13.99251   13.09795
       H    -5.40103    7.77374   10.63198
       O    -5.25395    7.31741    9.74835
      H1    -5.05083    8.06070    9.13527
       H    -5.46293   12.36966   13.08249
       O    -6.37997   12.36327   12.75661
      H1    -6.24996   12.45974   11.79429
       H    -5.53403   10.03793   11.26922
       O    -5.53326    9.16034   11.68688
      H1    -4.64828    9.17975   12.11736
       H   -11.62827   14.17625    9.41457
       O   -11.57302   15.12537    9.24602
      H1   -11.18892   15.29143    8.42561
       H    -3.87416   16.21600   11.75919
       O    -3.35938   16.33481   12.61278
      H1    -3.07212   17.24860   12.66487
       H    -4.89741    9.01797    6.93955
       O    -5.57414    9.14955    7.71121
      H1    -6.31007    8.52213    7.50731
       H    -7.95738    9.23148   13.27551
       O    -8.26894   10.09529   12.87450
      H1    -7.56118   10.71385   13.00241
       H    -4.45234   15.79376    9.80959
       O    -4.93401   16.03812   10.55232
      H1    -5.23845   16.95414   10.43423
       H    -6.81372   12.75294    9.46761
       O    -6.69535   11.89689    9.94010
      H1    -7.55745   11.44466   10.08983
       H    -7.00931   15.82356   10.54513
       O    -7.83008   16.29112   10.34600
      H1    -8.60646   15.85953   10.76985
       H    -9.80967   11.85106    7.92911
       O    -9.41431   11.52846    7.08524
      H1    -9.61986   10.61146    7.03709
       H    -5.40050   16.70781    6.60357
       O    -5.01286   15.90852    6.92630
      H1    -5.62067   15.38081    7.50174
       H   -10.38928   11.28840    9.84855
       O   -10.76941   12.13410    9.52090
      H1   -11.74712   11.96419    9.40736
       H    -6.33570   10.98463    7.59034
       O    -6.70924   11.57358    6.93188
      H1    -7.67924   11.54203    6.98182
       H    -4.06416   14.40536    6.24983
       O    -3.36044   13.78863    5.97428
      H1    -3.04829   14.08845    5.15831
       H    -4.02133   12.34391    5.48115
       O    -4.45049   11.52053    5.08463
      H1    -5.30991   11.40012    5.54033

