72
frame 8 | Written by MDAnalysis XYZWriter (release 2.4.3)
       H     9.77711  -20.29427  -15.42742
       O    10.11846  -19.76783  -14.76001
      H1    10.16587  -18.85953  -15.23964
       H     5.06523  -16.70885  -16.72670
       O     5.21243  -15.74428  -16.84892
      H1     6.09804  -15.58780  -16.59079
       H     5.78349  -13.58951  -12.89172
       O     4.85259  -13.43039  -13.04591
      H1     4.80504  -12.51588  -13.37686
       H     5.52262  -15.43622  -18.74973
       O     6.07017  -15.88946  -19.36631
      H1     6.35406  -15.14234  -19.95787
       H     3.49155  -18.18182  -17.26638
       O     4.19343  -18.82314  -17.07992
      H1     3.83202  -19.05265  -16.20477
       H     3.82957  -11.26719  -15.27130
       O     3.68274  -11.42419  -16.19645
      H1     2.77468  -11.79759  -16.25156
       H     9.51071  -14.57405  -18.76148
       O     9.46470  -14.00974  -17.98667
      H1     8.75061  -13.38573  -18.13134
       H     0.75393  -15.71884  -15.57271
       O     1.22812  -15.26364  -16.27323
      H1     2.06958  -14.99629  -15.91313
       H     1.46588  -17.18984  -17.61152
       O     1.99826  -17.46297  -18.40269
      H1     2.47619  -16.65474  -18.57996
       H     1.67921  -18.12556  -14.70730
       O     1.74025  -17.45465  -13.98414
      H1     2.44652  -16.83122  -14.14983
       H    11.03456  -13.46966  -17.69070
       O    11.84977  -13.09759  -17.41898
      H1    12.57475  -13.64578  -17.69649
       H    12.02495  -17.04831  -19.45110
       O    11.20108  -17.24782  -19.00668
      H1    10.52187  -16.67558  -19.33163
       H     0.84257  -13.61298  -16.41030
       O     0.82123  -12.67722  -16.29719
      H1    -0.03742  -12.31492  -16.55874
       H     7.44527  -18.75516  -16.10106
       O     7.07642  -19.56430  -15.81231
      H1     6.84796  -20.04547  -16.61465
       H     4.05810  -15.11752  -15.73321
       O     3.57975  -15.18259  -14.85349
      H1     4.09212  -14.59988  -14.22947
       H     4.50936  -12.62653  -18.68684
       O     5.31074  -12.78688  -18.13150
      H1     4.97125  -12.36923  -17.33725
       H     2.25814  -12.37100  -19.47486
       O     3.10343  -11.98901  -19.79266
      H1     3.12899  -11.07608  -19.46004
       H    10.79085  -17.16879  -16.01915
       O     9.87382  -17.26502  -15.76494
      H1     9.40884  -17.09471  -16.57043
       H     7.51634  -10.58293  -18.04958
       O     7.64508  -11.44020  -18.53270
      H1     6.82957  -11.98835  -18.38306
       H     7.66465  -14.07259  -14.01993
       O     7.82185  -13.66691  -13.13662
      H1     8.05913  -14.36371  -12.49138
       H     6.52359  -17.57236  -12.75589
       O     6.51813  -17.05695  -13.56318
      H1     5.56521  -17.06228  -13.73827
       H     8.20063  -18.15993  -18.27284
       O     8.07680  -17.38298  -17.76382
      H1     7.33400  -16.92689  -18.15973
       H     8.52586  -15.45075  -15.55460
       O     7.62672  -15.22473  -15.43127
      H1     7.31661  -15.85241  -14.76583
       H    10.06381  -17.99867  -12.58831
       O    10.00189  -17.07523  -12.95972
      H1     9.77737  -17.30974  -13.85964

