72
frame 8 | Written by MDAnalysis XYZWriter (release 2.4.3)
       H   -10.81718    6.02977   13.98159
       O   -11.12446    5.72311   14.92402
      H1   -11.81286    6.33228   15.21377
       H   -12.48001    1.62872   17.94112
       O   -11.67384    1.93565   17.51056
      H1   -11.00243    1.95235   18.16984
       H    -3.96300    3.08313   17.50799
       O    -3.26993    3.80909   17.45883
      H1    -2.93636    3.74411   16.56314
       H    -7.21267    1.45382   14.89462
       O    -6.83925    2.23575   15.25223
      H1    -7.60158    2.96009   15.19129
       H    -7.30743   10.86668   18.70158
       O    -7.87696   10.11448   18.87558
      H1    -7.85858   10.04633   19.82664
       H    -9.13252    5.45304   13.24613
       O    -9.71395    5.86714   12.56983
      H1   -10.27467    5.12590   12.21788
       H    -4.68086    6.08843   18.94177
       O    -4.27945    5.28650   19.26501
      H1    -3.99114    4.74799   18.49813
       H   -13.98987    6.76945   17.03173
       O   -13.43069    7.12187   17.76583
      H1   -12.76929    6.42616   17.86684
       H    -9.19222    7.66153   17.06236
       O    -9.00879    6.99646   16.35710
      H1    -9.89480    6.98938   15.92231
       H    -7.14743    7.57300   15.70549
       O    -6.56928    7.46598   14.95878
      H1    -5.89168    8.19163   15.15970
       H   -10.52365    9.54046   17.00748
       O   -10.54801    8.94733   17.79327
      H1    -9.98478    9.40325   18.42297
       H    -4.89954    6.03737   12.17470
       O    -4.91952    5.36119   12.81391
      H1    -4.33611    5.78388   13.46179
       H    -2.09476    6.38301   18.09788
       O    -1.53862    6.84330   17.49706
      H1    -0.77450    7.16653   17.99541
       H    -4.60291    0.21893   18.38798
       O    -4.35019   -0.67827   18.62647
      H1    -3.43459   -0.68147   18.45884
       H    -1.73968    5.07110   15.01520
       O    -2.23882    5.94802   14.97898
      H1    -2.02406    6.44659   15.76762
       H    -7.84135    8.65334   14.16885
       O    -8.28220    9.37663   13.70834
      H1    -7.66194   10.11659   13.61545
       H    -8.94386    5.06205   15.27005
       O    -8.20476    4.82938   14.69851
      H1    -7.59630    5.55795   14.66621
       H    -2.00727    9.28439   18.67151
       O    -2.78725    9.73913   19.05283
      H1    -3.51260    9.15132   18.91072
       H   -11.89813    3.87254   17.42434
       O   -12.08642    4.69078   18.00211
      H1   -11.33882    4.80448   18.62919
       H    -5.63753    1.86856   18.59911
       O    -5.11574    1.85165   17.78430
      H1    -5.74776    1.67750   17.10873
       H    -4.14663    1.40333   14.08943
       O    -4.70436    1.98287   13.57248
      H1    -5.48767    2.21584   14.16177
       H    -6.57091    4.84595   17.78399
       O    -7.32960    5.38031   17.99118
      H1    -7.64199    5.71990   17.14939
       H    -4.99974   10.18769   15.56639
       O    -4.64742    9.27289   15.72621
      H1    -3.73045    9.44431   15.52389
       H    -5.01162    8.23218   17.66578
       O    -4.81861    7.99427   18.60793
      H1    -5.57050    8.27597   19.15950

