72
frame 8 | Written by MDAnalysis XYZWriter (release 2.4.3)
       H     7.94239    4.48772  -13.83404
       O     7.74108    4.29927  -12.86280
      H1     8.02397    5.16604  -12.45380
       H     8.00265    8.74767  -13.31503
       O     9.00430    8.72456  -13.19811
      H1     9.11218    8.31660  -12.29232
       H     7.15854    2.15652  -17.32001
       O     6.50066    1.49387  -17.59832
      H1     5.81852    2.11751  -18.01707
       H    12.53174    3.31514  -13.54927
       O    12.94801    2.89944  -12.80565
      H1    13.88789    2.93281  -13.00430
       H    11.95978    6.31703  -15.62249
       O    12.20527    6.13007  -16.51038
      H1    12.16883    5.14097  -16.39260
       H    13.59777    7.47064  -13.29068
       O    12.80220    7.87686  -13.05867
      H1    12.16692    7.20059  -12.81925
       H     4.55386    3.23435  -14.72947
       O     4.40780    2.26397  -14.64853
      H1     5.23102    1.75696  -14.74211
       H     7.60627    4.77449  -16.63668
       O     7.45749    5.21964  -15.76130
      H1     8.27486    5.79379  -15.74823
       H     9.72486    1.17509  -16.56812
       O     9.43883    2.02436  -16.21915
      H1     9.40292    1.82162  -15.31934
       H     4.28802    5.72155  -12.00182
       O     5.20880    5.61084  -12.32373
      H1     5.41554    4.68714  -12.14286
       H     7.63074    7.07119  -10.22346
       O     7.56145    6.75465  -11.13844
      H1     6.65439    6.55419  -11.38329
       H    10.39033    8.27164   -9.69516
       O    10.42163    8.36510  -10.63475
      H1    11.03792    7.67544  -10.89353
       H    11.12169    6.00667  -19.33577
       O    10.53248    5.85420  -18.56837
      H1    11.13645    6.08397  -17.81727
       H     9.07203    3.43434  -17.34576
       O     8.51165    3.88249  -18.04524
      H1     9.10778    4.60117  -18.30138
       H     8.46790    2.43591  -10.66568
       O     9.03426    2.39911  -11.44797
      H1     8.56537    3.04896  -12.09450
       H     7.19463    0.53832  -14.74579
       O     6.30279    0.52451  -15.07933
      H1     6.40073    0.93817  -15.93231
       H     3.89857    1.71032  -13.02698
       O     3.56349    1.57291  -12.11754
      H1     3.65069    2.44106  -11.60943
       H     5.08870    5.09789  -14.30779
       O     4.45765    4.97211  -15.01837
      H1     4.90366    4.95862  -15.83419
       H     6.47476    1.28961   -9.75033
       O     7.13605    1.90537   -9.36178
      H1     6.67327    2.71115   -9.12734
       H    10.05426    6.29360  -11.89029
       O    10.95692    5.97328  -12.00837
      H1    11.13352    5.54333  -11.19873
       H     9.40886    7.89389  -16.04639
       O     9.61110    7.12662  -15.47173
      H1     9.47435    7.52232  -14.62133
       H     9.57399    0.08785  -13.74330
       O     8.93694    0.78564  -13.62154
      H1     8.85688    1.14597  -12.75807
       H    12.73861    2.75182  -16.23833
       O    12.03283    3.32343  -15.86404
      H1    11.20634    2.89799  -15.90196
       H     6.17310    7.65783  -13.95768
       O     6.24933    8.57180  -13.61498
      H1     5.92263    8.54219  -12.70216

