72
frame 7 | Written by MDAnalysis XYZWriter (release 2.4.3)
       H   -16.55093   -7.48043   -1.15554
       O   -16.02728   -6.68882   -0.87766
      H1   -15.33414   -6.75771   -1.49290
       H   -14.81016   -9.87983   -0.06581
       O   -14.73952   -9.88496   -0.98508
      H1   -14.82849  -10.81915   -1.10897
       H   -10.13617   -9.53391    2.81705
       O   -11.01376   -9.51049    3.20628
      H1   -11.45477  -10.32008    2.84082
       H   -11.30988   -4.78882    2.72315
       O   -11.35905   -4.25810    3.55755
      H1   -10.54170   -4.47061    4.06382
       H   -16.82393   -9.33427   -1.33350
       O   -17.50178   -8.71411   -1.16240
      H1   -17.81418   -8.73004   -0.21070
       H   -15.20912   -3.85757    3.62804
       O   -15.84437   -3.53761    2.93303
      H1   -16.00835   -4.31692    2.42777
       H   -12.67571  -11.82948    4.23014
       O   -12.71790  -12.00405    3.27970
      H1   -11.88324  -12.54451    3.13351
       H   -17.89037   -9.73677    4.48764
       O   -17.99213   -9.65861    3.53530
      H1   -17.18774  -10.10604    3.19297
       H   -12.43923  -11.82221    6.67067
       O   -12.61600  -11.11382    6.06453
      H1   -11.80083  -10.58247    5.99544
       H   -12.97631   -3.57388    4.25798
       O   -13.78808   -3.47054    4.76637
      H1   -13.76485   -4.09975    5.48601
       H    -9.71150  -10.33817    5.81875
       O   -10.37870   -9.65247    5.84759
      H1   -10.54052   -9.45920    4.90696
       H   -18.60597   -8.86512    1.94599
       O   -18.94946   -8.36661    1.22023
      H1   -19.69281   -8.84703    0.74107
       H   -12.07816   -5.93241    5.12330
       O   -11.92488   -6.88431    5.08827
      H1   -12.52049   -7.33103    4.54235
       H   -14.88321   -9.81011    3.02009
       O   -15.35604  -10.46030    2.46240
      H1   -14.80726  -11.23592    2.54623
       H   -11.42769   -7.84306    8.11072
       O   -12.19896   -7.49168    7.75737
      H1   -11.96861   -7.28624    6.75383
       H   -10.38358   -3.82607    0.99891
       O   -10.41479   -2.88221    0.99440
      H1   -11.32621   -2.68892    1.23543
       H   -10.89702   -6.54244    0.49643
       O   -10.42645   -5.70535    0.62631
      H1    -9.51816   -5.87396    0.35231
       H   -12.74843   -8.58764    2.94548
       O   -13.57635   -8.06656    3.04117
      H1   -13.69526   -7.57898    2.21710
       H   -13.37849   -7.30689   -3.17199
       O   -13.38965   -6.47468   -2.66948
      H1   -12.68705   -6.05059   -3.06976
       H   -17.13190   -5.62617    1.53821
       O   -16.24523   -6.06559    1.66156
      H1   -15.95591   -6.48737    0.80787
       H   -15.14100   -6.62912    5.16201
       O   -15.97596   -6.77678    4.64887
      H1   -15.55068   -6.95952    3.79708
       H   -13.46509   -5.88707    7.28520
       O   -14.05311   -5.50261    6.63563
      H1   -14.63585   -4.84555    7.12001
       H   -17.78250   -6.69982    4.89450
       O   -18.71996   -6.43506    5.05670
      H1   -19.17350   -6.61604    4.27501
       H   -12.71477   -7.09232   -0.87322
       O   -12.41943   -7.60539   -0.08099
      H1   -12.25837   -8.48683   -0.44866

