72
frame 7 | Written by MDAnalysis XYZWriter (release 2.4.3)
       H    17.30906  -13.72428   -6.57272
       O    16.90975  -14.19385   -7.31527
      H1    16.85165  -13.54705   -8.05959
       H    18.44173  -14.84913   -7.97757
       O    19.32537  -15.25243   -8.15680
      H1    19.22431  -16.11962   -8.54822
       H    13.25797  -16.46619   -2.85427
       O    12.47955  -15.94326   -2.76471
      H1    12.23024  -15.69359   -3.65537
       H    13.57568  -17.21760   -5.66738
       O    12.77043  -17.75546   -5.33316
      H1    12.03944  -17.41839   -5.91068
       H    16.80518  -11.54736   -4.32543
       O    16.56686  -11.05125   -3.51858
      H1    16.10409  -10.16216   -3.70143
       H    15.11435  -15.89098   -5.82858
       O    15.45254  -16.76735   -5.56625
      H1    15.29405  -17.24788   -6.38711
       H    11.76939  -12.80558   -9.34320
       O    10.89285  -12.66647   -9.76885
      H1    10.35485  -13.44842   -9.79614
       H    14.22080  -11.77002   -7.34628
       O    14.57833  -11.07743   -6.72567
      H1    15.53319  -11.11276   -6.90226
       H    12.42605  -11.76315   -5.02641
       O    11.62622  -11.20912   -4.92916
      H1    11.08316  -11.30437   -5.73189
       H    13.90875  -13.07133  -11.29496
       O    14.64047  -13.51253  -10.82684
      H1    14.80387  -14.24089  -11.40842
       H    10.09102  -17.14972   -7.09379
       O    10.70940  -16.48711   -6.72540
      H1    10.23978  -15.70529   -6.53727
       H     9.23411  -11.39277   -7.48315
       O    10.05577  -11.76457   -7.08711
      H1    10.61639  -11.84513   -7.86268
       H    12.94606  -16.09284   -9.01627
       O    12.07199  -16.56219   -9.08029
      H1    11.54876  -16.21839   -8.37154
       H    16.83140  -15.36382   -3.25679
       O    16.92653  -14.49174   -2.94583
      H1    16.19061  -14.04486   -3.37757
       H    13.13948   -9.75652   -5.23883
       O    13.37813   -8.84945   -5.09183
      H1    13.87558   -8.75499   -4.23696
       H    14.09911   -9.94312   -8.34799
       O    14.53524   -9.16179   -8.85071
      H1    14.80055   -8.63847   -8.06406
       H    14.44188  -13.74182   -5.33971
       O    14.48375  -14.21546   -6.18318
      H1    15.33334  -14.30428   -6.57657
       H    13.56798  -13.42126   -7.52315
       O    13.39351  -13.00876   -8.44030
      H1    14.09235  -13.30408   -9.06629
       H    13.47615  -12.68817   -3.18642
       O    14.18114  -12.63558   -3.81479
      H1    14.68633  -11.88017   -3.49313
       H    10.56162  -11.63243  -11.23960
       O    10.60202  -11.17016  -12.08242
      H1    11.28789  -11.56745  -12.62563
       H    14.98505  -15.95153  -10.16154
       O    14.60804  -16.14595   -9.30671
      H1    15.19718  -16.66645   -8.76767
       H    18.86402  -13.17309   -5.29755
       O    17.95049  -13.11356   -4.98761
      H1    17.79610  -13.63749   -4.15918
       H    16.94784  -11.41445   -9.36785
       O    16.56523  -12.29589   -9.22921
      H1    16.04541  -12.50235  -10.02450
       H     8.44235  -14.72738   -6.46338
       O     9.31519  -14.26559   -6.06055
      H1     9.50762  -13.43227   -6.57897

