72
frame 0 | Written by MDAnalysis XYZWriter (release 2.4.3)
       H    19.53164    5.29914  -10.66819
       O    18.90454    6.01078  -10.50802
      H1    18.23467    5.95446  -11.19839
       H    13.76522   -0.67897  -17.06172
       O    13.66619    0.20783  -16.70774
      H1    14.58165    0.50820  -16.64150
       H    19.22323    4.85295  -18.92815
       O    18.53239    4.28226  -19.26178
      H1    18.39124    3.55474  -18.67076
       H    13.21685    4.54791  -15.58876
       O    13.54397    5.16269  -14.95121
      H1    13.83239    5.88228  -15.47671
       H    16.89425    8.03470  -16.65323
       O    17.70002    8.23635  -17.06487
      H1    18.17193    7.35883  -17.06381
       H     9.91132    4.81068  -14.51962
       O    10.15476    5.20496  -13.65903
      H1    11.05854    5.55208  -13.66201
       H    14.59985   10.09339  -15.32984
       O    15.07111   10.86871  -15.04444
      H1    15.44460   11.20442  -15.94629
       H    14.31647    6.73760  -19.66161
       O    13.43765    6.67396  -19.27133
      H1    12.87397    6.02299  -19.79737
       H    13.87734    3.43333  -17.94094
       O    14.48026    4.16035  -17.88323
      H1    14.43946    4.58589  -18.75493
       H    17.02652    3.46945  -11.39905
       O    16.20857    3.75527  -10.89454
      H1    16.06544    4.70153  -11.07663
       H    13.11731    7.87079  -11.95547
       O    13.54217    8.72444  -12.11740
      H1    14.39797    8.54740  -12.58703
       H    16.80875    6.51052  -14.82363
       O    17.02515    5.61312  -14.57789
      H1    16.42215    4.94115  -14.87679
       H    14.81376    2.74567  -11.75617
       O    14.07547    2.08715  -11.70660
      H1    13.28080    2.57321  -11.98977
       H    17.70004    2.19854  -17.80683
       O    18.64536    2.01606  -17.72045
      H1    18.98211    1.41234  -18.41953
       H    14.61546    3.47778  -14.01319
       O    15.46826    3.17979  -14.36119
      H1    15.28276    2.53721  -15.04734
       H    18.88088    5.88362  -15.74781
       O    19.10293    6.07953  -16.68822
      H1    20.09121    5.80899  -16.61726
       H    15.20160    6.26567  -16.97917
       O    15.07906    7.04126  -16.43992
      H1    14.45699    7.58312  -16.93656
       H    14.89447   -0.61382  -13.41683
       O    14.20970   -0.35278  -12.77267
      H1    14.40033    0.58002  -12.49489
       H    16.39741    7.21457  -11.77964
       O    16.35575    6.26024  -11.92817
      H1    16.62679    6.11522  -12.86368
       H    11.62075    2.14258  -13.42894
       O    11.80225    2.82071  -12.76303
      H1    11.15202    3.49653  -12.97111
       H    18.43339    8.70798  -15.43497
       O    18.87363    8.46417  -14.56309
      H1    18.60474    9.13442  -13.97042
       H    16.54801    9.18931  -12.53848
       O    15.89349    9.07191  -13.25944
      H1    15.89861    9.78728  -13.92311
       H    15.42247    2.77912  -17.72768
       O    15.91162    1.91659  -17.74091
      H1    15.63214    1.35658  -18.45002
       H    17.47846    3.16075  -13.36452
       O    18.26066    3.09086  -12.73727
      H1    18.98711    3.36080  -13.27362

