72
frame 8 | Written by MDAnalysis XYZWriter (release 2.4.3)
       H    12.22684  -15.38515   11.74960
       O    11.97075  -15.16718   10.85744
      H1    11.20486  -15.73825   10.62147
       H     7.06832  -18.07951   14.74392
       O     7.11775  -17.28857   14.25076
      H1     6.25923  -16.89163   14.41970
       H     7.19187  -17.92552   17.42146
       O     8.07840  -17.95403   17.00540
      H1     8.18236  -17.11551   16.49258
       H     8.66037  -13.44637   13.08006
       O     9.07250  -14.28459   13.37389
      H1     8.65038  -14.56485   14.21766
       H     8.71555  -15.94237   18.38895
       O     9.24506  -15.45874   19.00535
      H1     9.67675  -14.71865   18.57389
       H    12.10880  -14.33009   14.20043
       O    11.37054  -13.73760   14.48240
      H1    10.53880  -14.04851   14.11407
       H     2.98151  -19.22635   12.83792
       O     2.48868  -18.59698   13.38818
      H1     3.06354  -18.44646   14.17255
       H     4.91719  -13.96251   12.55664
       O     5.77529  -13.92754   12.97595
      H1     6.41174  -14.37337   12.38663
       H    10.02987  -16.10800   13.51391
       O    10.60583  -16.82057   13.54803
      H1    10.33000  -17.57140   13.02148
       H     9.03821  -19.18316   10.80948
       O     8.21473  -19.38990   11.24339
      H1     8.44114  -19.95867   11.97057
       H     7.11660  -16.03645   11.27130
       O     7.63252  -15.22839   11.20805
      H1     8.03629  -15.12246   12.07247
       H     3.34725  -19.69619   16.71929
       O     3.87295  -19.04295   16.22436
      H1     4.27414  -18.43565   16.88581
       H     7.41731  -15.69821   15.49794
       O     8.14960  -15.38733   16.04117
      H1     7.77028  -14.62957   16.50931
       H     9.79478  -16.53052    9.01749
       O     9.84359  -16.72552    9.99476
      H1     9.10192  -16.22653   10.33416
       H     7.82327  -11.34969   13.49192
       O     7.58020  -11.90441   12.72092
      H1     6.74947  -12.42686   12.93516
       H     3.19050  -17.31731   12.41035
       O     3.77971  -16.65595   11.93305
      H1     3.18298  -16.17764   11.33820
       H     5.57075  -17.31035   18.91671
       O     5.52409  -17.92929   18.16574
      H1     5.27656  -18.72839   18.62111
       H     9.86738  -18.19031   16.50507
       O    10.73993  -18.44074   16.16498
      H1    10.87022  -17.92915   15.33541
       H     6.67565  -12.81695   17.89802
       O     6.62026  -13.76086   17.72292
      H1     5.70422  -13.86882   17.52778
       H     7.19599  -15.09359    8.30300
       O     7.28284  -14.18515    8.57308
      H1     7.23610  -14.17975    9.49124
       H     3.25016  -14.38900   17.18297
       O     4.02106  -13.96659   16.75095
      H1     4.35552  -14.54321   16.02862
       H     6.81779  -17.99318   11.29253
       O     6.15422  -17.45776   10.80758
      H1     5.41151  -17.17957   11.32703
       H     5.28327  -15.32186   13.99206
       O     4.89589  -15.67784   14.77697
      H1     4.26939  -16.31942   14.55619
       H    11.11328  -20.09672   13.57449
       O    11.08158  -19.54438   12.79356
      H1    12.02106  -19.20684   12.65337

