72
frame 9 | Written by MDAnalysis XYZWriter (release 2.4.3)
       H   -14.18597   14.84087    4.07719
       O   -14.17493   14.99530    5.00265
      H1   -14.90602   15.51147    5.34181
       H   -11.82197   10.17043    3.04288
       O   -12.55755   10.71560    2.88803
      H1   -12.19480   11.60562    2.91824
       H   -16.11538   13.16360    5.19493
       O   -16.61075   13.49534    4.44970
      H1   -16.04347   13.07018    3.76354
       H   -13.25011   10.43496    6.66657
       O   -12.45193   10.45869    7.23711
      H1   -12.69201    9.98542    8.07176
       H   -13.20817    9.38801   -0.21950
       O   -12.72460    8.68661   -0.65909
      H1   -12.47583    8.15614    0.10969
       H    -9.31280   11.48742   -0.35784
       O    -8.47840   11.41184    0.01797
      H1    -7.98498   12.15093   -0.30850
       H   -11.10613    9.67529    6.36568
       O   -10.38074    9.27460    5.87198
      H1   -10.50672    9.43078    4.94344
       H    -8.71806   12.24034    3.25369
       O    -8.34338   11.50876    2.78822
      H1    -8.54069   11.60912    1.86063
       H   -15.49637   13.29369    1.91692
       O   -15.09570   12.74863    2.58468
      H1   -14.74443   11.99669    2.12518
       H   -10.92036    7.71841    5.53449
       O   -11.48499    6.85662    5.49039
      H1   -12.39601    7.25872    5.37200
       H   -14.36349    9.98109    1.25499
       O   -14.40733   10.87030    0.87858
      H1   -15.27184   11.00272    0.47841
       H   -13.24378    5.01631    2.86820
       O   -13.75134    5.81433    2.48004
      H1   -14.49365    5.34822    2.05836
       H   -10.57760   13.52759    4.27589
       O    -9.89932   13.57849    3.49507
      H1   -10.44092   13.89419    2.77227
       H   -12.35463   13.25390    5.96225
       O   -11.49033   13.58324    5.69059
      H1   -10.92424   13.16967    6.42003
       H    -9.29447    9.95430    3.15500
       O   -10.12602    9.43195    3.29686
      H1    -9.80516    8.50481    3.27107
       H   -13.83877    6.35516    4.40463
       O   -14.16685    6.86824    5.14060
      H1   -14.65641    6.19352    5.66353
       H   -11.78832   11.25043    0.25306
       O   -11.34439   11.87432   -0.35355
      H1   -12.13334   12.24751   -0.82506
       H   -14.47805   13.34248    5.82585
       O   -14.81691   12.67569    6.42625
      H1   -14.90169   11.90514    5.81316
       H   -14.30702    7.59728    1.96100
       O   -14.91937    8.37833    1.92602
      H1   -15.50109    8.07745    1.20429
       H   -15.57949    7.72984    4.70156
       O   -16.41648    8.22035    4.69165
      H1   -16.72920    8.16072    3.81654
       H   -15.11850    9.68587    5.00078
       O   -14.40287   10.34727    5.06923
      H1   -13.92869   10.35788    4.21728
       H    -9.74693    8.45595   -2.18890
       O   -10.33675    9.20482   -2.00814
      H1   -11.16365    8.92211   -1.66033
       H   -12.13803    6.26434    1.75398
       O   -11.55415    6.81727    1.23188
      H1   -10.67668    6.73097    1.64979
       H   -11.11533   13.54302    0.92316
       O   -11.21717   14.44736    1.32043
      H1   -10.47900   14.95781    0.98161

