72
frame 0 | Written by MDAnalysis XYZWriter (release 2.4.3)
       H    10.91585   -1.20110   -0.60262
       O    11.49413   -1.26772   -1.41753
      H1    11.98134   -2.14172   -1.35586
       H    15.92949   -4.74167    2.33508
       O    16.00466   -5.03567    1.35516
      H1    15.08927   -5.42973    1.18618
       H    13.59911   -4.74653   -4.27605
       O    14.02361   -4.07891   -3.70388
      H1    14.89777   -4.45728   -3.46419
       H    13.08559   -4.32338   -1.75189
       O    12.25893   -4.02130   -1.30400
      H1    11.63610   -3.99749   -2.05113
       H    17.26799   -4.12644   -1.71925
       O    16.74736   -3.69066   -2.43533
      H1    16.32286   -2.96595   -1.93353
       H    14.62940   -1.35833   -2.69186
       O    15.02171   -1.47009   -1.77301
      H1    15.61838   -0.72197   -1.61948
       H    18.46777   -4.28343   -3.29105
       O    19.37473   -4.41918   -3.56617
      H1    19.76576   -3.53698   -3.54403
       H    15.99613    1.30719   -0.55395
       O    15.61698    1.48917   -1.39956
      H1    16.31822    1.88451   -1.97348
       H    13.17017   -8.91129   -0.35984
       O    13.49058   -8.13678   -0.84289
      H1    14.44591   -8.21079   -1.00327
       H    14.42460   -3.60873    1.00691
       O    14.02068   -2.75701    0.97709
      H1    14.15820   -2.37288    0.16599
       H    13.77837   -8.89128   -5.98910
       O    14.45464   -8.23692   -6.30112
      H1    14.16316   -7.33172   -6.05476
       H    17.10634   -5.03697   -7.54395
       O    18.07142   -4.81724   -7.64222
      H1    18.58490   -5.14107   -6.86195
       H    16.09604   -2.31944   -5.39771
       O    16.94893   -2.37144   -4.95146
      H1    16.83090   -2.66592   -4.05519
       H    13.01808   -5.26833   -0.12298
       O    13.57827   -5.77546    0.48635
      H1    13.65891   -6.60607   -0.01867
       H    17.17169   -2.60635    1.00220
       O    17.86027   -2.24633    1.51117
      H1    18.09305   -2.95935    2.09178
       H    14.56889   -3.27694   -5.63699
       O    14.68094   -2.77259   -6.42001
      H1    13.76424   -2.53464   -6.61119
       H    18.29926   -8.66312   -3.60987
       O    18.21605   -7.72128   -3.50572
      H1    18.98573   -7.20976   -3.25987
       H    19.56683   -0.65770   -2.79622
       O    18.88642   -0.83454   -2.13642
      H1    18.89516   -0.03756   -1.68103
       H    13.34980    0.19214   -4.07555
       O    13.98076   -0.49446   -4.43939
      H1    13.38009   -1.19089   -4.65782
       H    15.83884    0.01624   -7.13534
       O    15.96808    0.58276   -6.36022
      H1    15.39180    0.14884   -5.65930
       H    16.46708   -7.68457   -6.46959
       O    17.40026   -7.69770   -6.36220
      H1    17.63735   -7.72773   -5.40660
       H    16.61571   -7.51059   -2.31493
       O    16.11407   -7.76936   -1.50353
      H1    16.84492   -7.85226   -0.83006
       H    13.85316   -5.51686   -6.65042
       O    13.24999   -5.70028   -5.94899
      H1    12.38208   -5.85590   -6.34440
       H    18.22721   -2.34944   -6.36706
       O    18.71290   -2.25242   -7.18890
      H1    18.56130   -3.18827   -7.57822

