72
frame 9 | Written by MDAnalysis XYZWriter (release 2.4.3)
       H    -6.92015   -8.78699  -17.81610
       O    -7.25441   -9.51344  -18.35967
      H1    -7.10010   -9.24227  -19.25970
       H    -4.46426  -14.04627  -14.04575
       O    -4.93484  -13.72976  -13.22915
      H1    -4.73024  -14.38927  -12.58560
       H    -6.51814   -5.73339  -19.93137
       O    -6.60587   -6.42304  -19.27506
      H1    -5.67254   -6.75630  -19.10135
       H    -7.96866  -10.28413  -10.61058
       O    -7.56269  -10.52653  -11.43940
      H1    -6.65724  -10.19979  -11.45996
       H   -11.49040   -9.82338  -13.40959
       O   -11.86040  -10.29239  -14.19408
      H1   -11.09670  -10.64448  -14.72879
       H    -2.31784  -11.02740  -17.54523
       O    -1.67769  -11.73447  -17.72898
      H1    -2.09936  -12.18594  -18.47585
       H    -9.17346  -14.32335  -14.26272
       O    -9.34499  -13.40673  -14.04350
      H1    -8.64813  -13.19439  -13.40394
       H    -6.28402  -10.84307  -16.62692
       O    -5.63245  -10.95338  -15.90753
      H1    -6.07548  -10.69375  -15.11997
       H    -6.48331  -16.83073  -16.61659
       O    -6.43861  -15.90304  -16.38327
      H1    -5.91907  -15.99261  -15.59453
       H   -10.32075   -9.71290  -18.78210
       O    -9.74504   -8.93852  -18.61635
      H1    -8.77234   -9.29610  -18.57047
       H   -10.06156  -12.36957  -15.30250
       O   -10.38659  -11.80686  -16.01423
      H1    -9.54170  -11.60486  -16.39754
       H    -6.62908  -13.02779  -12.85888
       O    -7.40450  -13.00644  -12.33470
      H1    -7.40366  -12.25008  -11.73787
       H    -9.13782  -10.03956  -12.55341
       O    -9.92698   -9.46870  -12.35431
      H1    -9.48982   -8.60593  -12.18578
       H    -4.56782  -13.07469  -16.71022
       O    -4.12869  -13.34522  -15.87710
      H1    -3.74361  -12.54734  -15.59305
       H    -5.40456   -7.69827  -16.26159
       O    -6.34961   -7.53968  -16.23332
      H1    -6.40245   -6.68424  -16.72387
       H    -3.64414  -10.58783  -20.26707
       O    -3.84303  -11.37044  -19.79264
      H1    -4.40277  -11.01759  -19.10742
       H    -4.32731  -10.05452  -16.70864
       O    -3.53545   -9.78316  -17.23894
      H1    -3.70123   -8.83698  -17.54999
       H   -10.40091   -7.36552  -15.24664
       O    -9.55755   -7.39108  -14.74538
      H1    -9.07736   -6.70293  -15.22016
       H    -3.52164  -12.63352  -12.78634
       O    -2.61467  -12.31296  -12.81442
      H1    -2.22624  -12.73147  -11.99523
       H    -8.34619  -15.72398  -18.54129
       O    -8.87577  -15.57724  -17.76104
      H1    -8.23634  -15.51746  -17.01121
       H    -6.32396  -15.08105  -19.41320
       O    -5.63823  -14.64540  -18.85020
      H1    -5.79360  -15.01795  -17.99140
       H    -3.50694   -6.69914  -18.15647
       O    -4.19650   -7.36789  -18.42613
      H1    -3.78688   -7.79785  -19.21188
       H    -6.18820   -5.09852  -14.40966
       O    -6.70793   -5.75216  -13.84689
      H1    -6.82686   -6.45240  -14.55473
       H    -7.02338  -12.95810  -18.35131
       O    -7.54237  -12.23184  -18.03756
      H1    -7.54389  -11.49725  -18.66742

