72
frame 0 | Written by MDAnalysis XYZWriter (release 2.4.3)
       H    -8.05963    8.89834  -17.19049
       O    -9.02948    8.76231  -17.35783
      H1    -9.43062    8.69198  -16.52775
       H   -12.49464   10.19318  -13.86066
       O   -12.15017   10.65823  -14.61596
      H1   -12.68145   11.41420  -14.74164
       H   -11.33229   12.04974  -11.88614
       O   -12.08735   12.41190  -11.46931
      H1   -12.64609   12.40699  -12.25411
       H   -14.12838   13.55914  -13.68580
       O   -13.91113   12.58857  -13.57874
      H1   -14.78869   12.18277  -13.55242
       H   -17.67521    6.90389  -16.64582
       O   -17.41527    5.95165  -16.69859
      H1   -17.32692    5.82234  -17.63940
       H    -9.39707   10.57766  -16.16492
       O    -9.66432   11.21620  -15.49185
      H1   -10.29774   10.76566  -14.96445
       H   -13.06149    7.20137  -17.48505
       O   -12.20493    6.86484  -17.89186
      H1   -12.04346    7.32583  -18.71508
       H   -13.72085   10.28580  -11.92089
       O   -13.25984    9.56628  -12.37183
      H1   -12.38727    9.52907  -11.98089
       H   -14.47508   10.48916  -19.10599
       O   -15.37861   10.25329  -19.49206
      H1   -15.35119    9.27141  -19.71499
       H   -17.26570   10.61553  -18.51071
       O   -17.92717   10.76035  -17.82654
      H1   -17.53839   10.18314  -17.11820
       H   -16.82818   14.01454  -16.64977
       O   -17.46185   13.81745  -15.89124
      H1   -17.49644   14.58578  -15.30309
       H   -13.12332   15.30310  -14.43604
       O   -14.13270   15.30794  -14.34050
      H1   -14.40487   15.16135  -15.24462
       H   -11.76247    9.97182  -16.31246
       O   -11.63173   10.03070  -17.32152
      H1   -11.51517    9.12827  -17.67240
       H   -12.55926   13.06516  -17.42483
       O   -12.84652   13.13875  -16.50245
      H1   -12.10374   13.31831  -16.00105
       H   -18.69048    8.65504  -15.68455
       O   -17.78831    8.68994  -15.94637
      H1   -17.33806    8.66742  -15.02454
       H    -8.75213   14.19825  -16.30056
       O    -9.59954   13.88937  -16.63050
      H1    -9.61232   13.01613  -16.24236
       H   -12.24011   10.85837  -18.65270
       O   -12.84511   11.39411  -19.17545
      H1   -12.26733   12.06980  -19.57003
       H   -15.94576   11.19389  -15.01645
       O   -16.50273   11.66414  -14.36365
      H1   -16.92271   12.40127  -14.93048
       H    -9.52729    8.08879  -14.42331
       O   -10.38898    7.99777  -14.83577
      H1   -10.24702    7.09488  -15.22338
       H   -14.09239   14.20201  -16.64459
       O   -14.87847   14.76680  -16.94194
      H1   -14.59480   15.03340  -17.82145
       H   -13.53612   10.35743  -17.00797
       O   -14.27775   10.60723  -16.43119
      H1   -14.02194   11.53033  -16.38928
       H   -11.51763    6.07112  -16.59064
       O   -10.97268    5.54081  -15.95901
      H1   -11.68828    5.11557  -15.40776
       H   -15.44969    6.97497  -16.47624
       O   -14.48174    7.15839  -16.46696
      H1   -14.36761    7.76925  -15.73993
       H   -15.83845    8.31021  -13.16341
       O   -16.19279    8.86429  -13.87315
      H1   -16.24488    9.82067  -13.66379

