72
frame 8 | Written by MDAnalysis XYZWriter (release 2.4.3)
       H     2.65189   16.25299   15.67991
       O     2.46126   16.46463   16.63386
      H1     3.08658   16.04132   17.18481
       H     3.52111   14.61644   13.67330
       O     3.72511   13.66759   13.55447
      H1     4.14131   13.51574   12.67665
       H     6.93028   17.17169    8.33099
       O     7.01491   16.22593    8.57915
      H1     6.59679   15.76045    7.85204
       H     4.78930   19.02251   10.15960
       O     5.22992   19.54260    9.46954
      H1     5.64024   20.21360    9.99159
       H     4.45045   17.64509   12.05776
       O     3.80082   18.35496   11.81851
      H1     3.32985   17.88200   11.13498
       H     6.73572   17.66275   12.91389
       O     6.18070   16.89619   12.96159
      H1     6.11645   16.57088   12.02531
       H     2.09250   16.11971    6.89505
       O     2.66945   16.83930    7.22889
      H1     2.59788   17.66547    6.66174
       H     3.74602   12.07974    6.95433
       O     2.84761   12.16990    7.36128
      H1     3.00308   11.93558    8.28378
       H    -0.63671   10.76504    9.13405
       O    -0.45627   11.74079    9.17133
      H1    -0.97087   12.10503    8.46353
       H     1.14437   14.30228    6.13476
       O     1.31567   14.59471    7.09463
      H1     1.95867   13.86211    7.27843
       H     5.57422   13.76869   10.61934
       O     5.30017   12.84268   10.84163
      H1     4.46711   12.74354   10.31845
       H    -2.00130   16.44245   11.85022
       O    -1.73921   15.84725   11.15017
      H1    -2.50453   15.98106   10.54312
       H     0.65116   17.38254   13.61183
       O    -0.11870   17.89040   13.86814
      H1    -0.78161   17.19595   13.94777
       H    -1.88168   14.31518    6.98018
       O    -1.56603   14.28878    7.88278
      H1    -0.65439   14.59638    7.93673
       H    -1.39706   14.59767   14.61660
       O    -1.41116   15.25144   13.91856
      H1    -1.09311   14.73384   13.19149
       H     0.05364   15.42133   11.07272
       O     0.86589   15.03720   11.51046
      H1     0.67045   14.07380   11.68131
       H     2.20302   15.73658   10.34599
       O     2.90818   16.35152   10.12252
      H1     2.78883   16.50234    9.20475
       H     1.05842   12.06851   12.24107
       O     0.29123   12.54586   11.90469
      H1     0.09388   12.29054   10.95055
       H     6.10645   15.93699    9.90728
       O     5.44598   15.62817   10.59329
      H1     4.59736   15.84621   10.31743
       H     5.22546   14.42998    6.62812
       O     5.33290   15.36126    6.77509
      H1     4.44678   15.75994    6.89134
       H    -0.89864   17.46771    6.59937
       O    -1.49475   17.72916    7.37333
      H1    -2.02288   16.93519    7.59173
       H     2.67192   10.77773   13.14671
       O     2.30620   11.38337   13.78334
      H1     2.88895   12.17557   13.67293
       H     3.02256   16.99107   13.23969
       O     2.62192   16.27794   13.74781
      H1     2.09562   15.79301   13.10706
       H     1.87368   11.65644    9.80690
       O     2.81060   11.58923    9.83586
      H1     3.12609   10.91756   10.43139

