72
frame 9 | Written by MDAnalysis XYZWriter (release 2.4.3)
       H     2.11133   15.73261  -15.07837
       O     2.85908   16.18471  -15.44752
      H1     2.88427   15.96855  -16.33729
       H     1.33592   14.21727  -13.22856
       O     1.94778   13.50855  -13.48542
      H1     1.57627   13.11671  -14.31547
       H     4.85631   15.81751  -14.88353
       O     5.41700   15.08867  -14.86521
      H1     5.11284   14.54663  -15.57285
       H    -1.47189   10.83896  -15.03179
       O    -1.16715   11.29154  -15.80037
      H1    -2.02236   11.23272  -16.37145
       H     7.43598    9.43800  -16.83813
       O     8.37271    9.06261  -16.84625
      H1     9.02658    9.73802  -17.02987
       H     6.28839   14.13874  -17.80441
       O     6.65812   14.33486  -18.67862
      H1     7.57484   13.98419  -18.47975
       H     3.16104    6.75878  -15.33691
       O     2.29572    6.29336  -15.27312
      H1     2.26188    5.41203  -15.71890
       H    -0.14440   12.88922  -19.40776
       O     0.29007   13.56786  -18.87930
      H1    -0.33383   13.78527  -18.17823
       H     0.63036    8.59544  -16.28043
       O     0.89291    7.96471  -16.93991
      H1     1.32239    7.21534  -16.47798
       H     2.28878    9.48530  -17.64972
       O     2.95771    9.67116  -18.35433
      H1     3.76036    9.52721  -17.86075
       H     4.18794   13.17279  -17.34616
       O     4.89041   13.17489  -16.68622
      H1     4.79365   12.31451  -16.23247
       H     2.83099   16.72492  -18.31437
       O     3.58626   16.23478  -17.92510
      H1     4.28116   16.86495  -17.77772
       H    -1.19497   14.50609  -16.05014
       O    -1.13283   14.80794  -16.95781
      H1    -2.00883   14.84905  -17.33860
       H     6.08644   12.50911  -19.10658
       O     5.64297   11.64306  -19.08429
      H1     6.20941   11.01842  -19.58549
       H    -2.30168    6.42348  -18.27449
       O    -1.79829    6.95061  -17.66227
      H1    -0.88148    6.77764  -17.92512
       H     1.72351   12.13556  -16.28414
       O     1.40267   11.91265  -15.36258
      H1     0.47113   11.84402  -15.56129
       H     5.43785   12.30156  -13.79286
       O     5.73244   11.47386  -14.25862
      H1     5.78079   10.67840  -13.69370
       H     6.17925    8.59857  -18.24250
       O     5.81149    9.33941  -17.70906
      H1     5.89965   10.23050  -18.15995
       H     1.55907   12.75110  -18.33282
       O     2.30160   12.29906  -17.91257
      H1     2.45929   11.40910  -18.34158
       H     6.83192    6.45229  -19.45358
       O     6.91041    7.29281  -19.03757
      H1     7.69456    7.19475  -18.48110
       H     2.37149   10.83504  -14.06615
       O     2.65733    9.99161  -13.74604
      H1     2.19379    9.75249  -12.89216
       H     8.71145   12.04059  -15.03438
       O     7.87726   12.53693  -15.19343
      H1     7.16785   11.95251  -14.96801
       H     5.15474    8.54863  -15.59716
       O     4.30183    8.31572  -15.32871
      H1     3.79871    9.09460  -14.96611
       H    -3.50196   10.82686  -18.20814
       O    -3.47871   10.87698  -17.24076
      H1    -4.11148   11.62141  -17.01409

