72
frame 9 | Written by MDAnalysis XYZWriter (release 2.4.3)
       H    -6.48891  -16.30484   10.14286
       O    -5.65399  -16.13474    9.62630
      H1    -5.21497  -16.99208    9.59339
       H    -1.66337  -17.85907   15.89458
       O    -1.41919  -18.27436   15.05151
      H1    -1.15488  -19.23936   15.30271
       H    -6.23321  -16.69669   13.06646
       O    -6.19450  -15.73498   12.88668
      H1    -5.28079  -15.66490   12.58001
       H    -7.21230  -16.82161   19.22324
       O    -7.79353  -16.05506   19.11569
      H1    -7.65633  -15.70888   18.16996
       H    -8.77500  -14.28245   16.70348
       O    -7.92529  -14.70847   16.72067
      H1    -7.42568  -14.28318   16.08722
       H    -6.18655  -18.46061   14.30041
       O    -6.83126  -18.14255   13.66087
      H1    -7.29363  -18.87880   13.17099
       H    -7.51879  -12.76732   14.73572
       O    -6.78190  -13.41148   14.78475
      H1    -6.90738  -14.05526   14.04784
       H    -3.71433  -14.63829   17.76154
       O    -4.27683  -15.29662   18.20561
      H1    -4.45291  -14.92578   19.06082
       H    -1.08365  -16.95309   17.84496
       O    -1.83881  -17.02332   17.35411
      H1    -2.29280  -16.24063   17.64066
       H    -4.35123  -15.46854   10.63402
       O    -3.97287  -15.26858   11.53110
      H1    -3.13961  -15.71892   11.47673
       H   -11.74252  -17.10381   11.47588
       O   -11.55802  -17.81511   12.06487
      H1   -11.54827  -17.36729   12.90455
       H    -1.47106  -18.02958   10.08358
       O    -2.17011  -17.61467   10.65794
      H1    -2.18556  -18.28555   11.28618
       H    -8.34263  -16.04196   15.44540
       O    -8.91214  -16.65894   14.91820
      H1    -8.27515  -17.32385   14.52172
       H    -8.84033  -16.08196   10.14659
       O    -8.94351  -17.06078   10.14620
      H1    -8.58888  -17.30228    9.22174
       H    -3.72148  -19.06306   17.97869
       O    -4.02195  -18.95587   18.92185
      H1    -3.34832  -18.30518   19.19102
       H    -4.79644  -18.37923   15.69060
       O    -4.93662  -19.28984   15.40291
      H1    -4.09353  -19.77252   15.51883
       H    -4.31334  -18.89704    8.51990
       O    -4.42324  -18.62491    9.47676
      H1    -3.51785  -18.33344    9.66002
       H   -11.45140  -15.51905   13.52812
       O   -11.39320  -16.19935   14.22621
      H1   -10.36823  -16.33991   14.28056
       H   -10.69361  -17.03538   17.95560
       O   -10.30852  -17.72307   17.33329
      H1    -9.58678  -17.24669   16.89518
       H    -9.31906  -13.73187   10.65648
       O    -8.50526  -14.19371   10.75323
      H1    -8.07911  -14.03106   11.57963
       H    -8.10242  -19.83413   11.10833
       O    -8.75122  -19.37877   11.63982
      H1    -8.87530  -18.46275   11.25638
       H    -5.82089  -18.66133   19.11406
       O    -6.77660  -18.53677   19.22555
      H1    -7.22417  -18.68204   18.37945
       H    -5.14132  -16.47193   16.93125
       O    -5.34383  -16.58154   15.97907
      H1    -4.76197  -15.94349   15.55761
       H    -1.84215  -14.49056   13.48098
       O    -1.93100  -15.10632   14.22836
      H1    -1.05012  -15.27434   14.55480

