72
frame 8 | Written by MDAnalysis XYZWriter (release 2.4.3)
       H   -14.44420   15.02578    3.69250
       O   -14.03667   14.93784    4.55747
      H1   -14.41645   15.63772    5.15503
       H   -18.27054   11.36103    6.14994
       O   -18.06949   10.99036    7.05561
      H1   -17.96274   11.69762    7.71844
       H   -18.03917   18.77554    5.57694
       O   -18.15858   19.73598    5.71132
      H1   -18.16121   19.74685    6.68306
       H   -18.23407   15.42761    2.86795
       O   -19.08669   15.85911    2.88683
      H1   -19.67436   15.17455    3.28365
       H   -12.88183   16.61006   10.06470
       O   -13.63636   17.21737    9.96286
      H1   -13.73218   17.59949   10.87364
       H   -13.33374   18.46704    3.26585
       O   -13.99048   18.63305    3.97424
      H1   -14.21228   17.86055    4.47814
       H   -17.07846   16.74067    8.96102
       O   -17.73701   17.41168    9.00188
      H1   -18.60068   17.02235    8.66979
       H   -17.87143   18.25860    1.72384
       O   -16.93884   18.50766    2.05025
      H1   -17.11615   19.31970    2.49752
       H   -17.03946   17.37325    4.48947
       O   -17.75335   17.21508    5.09360
      H1   -18.37278   16.79178    4.50885
       H   -13.84295   14.78380   12.96116
       O   -14.65215   15.21089   12.76996
      H1   -15.20538   14.96876   13.56458
       H   -14.33459   17.40104    6.69160
       O   -14.87350   17.04615    6.00204
      H1   -15.77817   17.28733    6.26453
       H   -18.01560   12.89763   12.46304
       O   -18.71252   12.38317   12.94130
      H1   -18.49481   12.29521   13.89180
       H   -14.18675   16.98382   12.69446
       O   -14.21499   17.93145   12.47317
      H1   -13.68071   18.32898   13.17440
       H   -11.92751   14.19819    9.04370
       O   -11.31145   14.37432    9.75079
      H1   -10.63836   13.65066    9.54529
       H   -18.58693   13.30381    9.21604
       O   -17.86019   13.22171    8.56132
      H1   -18.15187   13.78044    7.81437
       H   -15.70052   18.88139   13.40897
       O   -16.38189   19.56229   13.52038
      H1   -16.32506   20.30332   12.88609
       H   -12.96624   17.48989    8.35074
       O   -12.91962   17.91520    7.48830
      H1   -12.38152   17.29313    6.96084
       H   -15.49496   14.04150   11.72799
       O   -16.30456   13.49170   11.43460
      H1   -16.38860   13.71894   10.49788
       H   -17.81022   15.54972   14.27283
       O   -18.31745   16.31503   14.11230
      H1   -17.80787   16.78501   13.52417
       H   -14.65324   13.48673    5.59473
       O   -15.22629   12.93415    6.17097
      H1   -15.03095   11.99409    6.02295
       H   -15.26797   15.84313    8.40586
       O   -15.69413   15.62635    9.25723
      H1   -15.17019   16.06276    9.95069
       H   -18.14470   15.31662    6.08829
       O   -18.77772   14.75695    6.54497
      H1   -19.24475   15.37884    7.07308
       H   -17.58556   17.58930   10.72535
       O   -17.07875   17.42559   11.57071
      H1   -16.78793   18.31621   11.86934
       H   -14.48594   14.02850    8.88197
       O   -13.74404   13.57602    8.51039
      H1   -14.09740   13.22735    7.67173

