72
frame 9 | Written by MDAnalysis XYZWriter (release 2.4.3)
       H    -8.12598  -16.31634  -10.43805
       O    -8.72149  -17.02781  -10.73594
      H1    -8.16756  -17.58765  -11.30276
       H    -4.38341  -16.45297  -11.07772
       O    -5.25535  -16.22249  -11.34124
      H1    -5.73326  -15.68958  -10.67071
       H    -7.71316  -16.21224  -15.06945
       O    -8.52404  -16.07734  -14.50301
      H1    -8.43330  -16.46186  -13.61222
       H   -10.96557  -16.52263  -12.24876
       O   -11.04756  -16.25253  -11.29751
      H1   -10.16209  -16.53844  -10.96476
       H   -12.58879  -18.52201   -8.91692
       O   -12.47554  -18.62686   -7.93794
      H1   -13.38836  -18.52441   -7.59206
       H    -9.94748  -13.36554  -12.20635
       O   -10.36182  -13.58566  -11.38883
      H1   -10.53454  -14.52637  -11.45233
       H    -9.17346  -14.32335  -14.26272
       O    -9.34499  -13.40673  -14.04350
      H1    -8.64813  -13.19439  -13.40394
       H   -10.20487  -12.11601   -9.85729
       O    -9.52666  -11.89957   -9.19009
      H1    -9.24587  -12.75978   -8.91441
       H   -13.26323  -15.82874  -15.13281
       O   -12.84927  -14.96577  -14.91950
      H1   -12.50503  -14.66670  -15.75093
       H    -9.50167  -15.23976   -8.19892
       O    -9.05351  -14.42128   -8.02338
      H1    -8.84746  -14.19700   -7.06199
       H    -5.39135  -17.10878   -8.21338
       O    -5.94575  -17.91332   -8.23602
      H1    -6.87410  -17.80280   -8.56354
       H    -9.40405  -18.84109   -9.81337
       O    -9.00677  -19.27508   -9.03182
      H1    -9.61475  -20.04507   -8.87362
       H    -6.84924  -19.32833  -11.18783
       O    -7.52540  -19.09127  -11.91779
      H1    -8.18835  -19.75042  -11.90421
       H    -6.62908  -13.02779  -12.85888
       O    -7.40450  -13.00644  -12.33470
      H1    -7.40366  -12.25008  -11.73787
       H   -12.47589  -11.85822  -13.77095
       O   -12.94864  -12.63541  -13.37032
      H1   -12.87455  -13.36987  -14.00784
       H   -13.89365  -17.86690  -11.21576
       O   -14.82987  -17.73480  -11.46437
      H1   -14.79615  -17.53578  -12.42662
       H    -7.51235  -14.16402  -10.57520
       O    -7.28297  -14.84575   -9.99302
      H1    -7.78971  -14.66124   -9.18672
       H   -12.72835  -14.07455   -8.52908
       O   -12.73638  -14.96811   -8.31864
      H1   -11.85768  -15.14545   -8.03700
       H   -11.86699  -16.18867  -14.01413
       O   -11.27846  -16.94535  -13.95679
      H1   -10.51510  -16.82204  -14.50159
       H   -11.36328  -17.15813   -7.22972
       O   -10.68067  -16.54642   -7.34847
      H1   -10.20142  -16.61173   -6.53858
       H   -13.53688  -12.76786   -9.77191
       O   -13.14935  -12.25630   -9.02994
      H1   -13.83487  -11.73856   -8.66600
       H   -11.87780  -17.62433  -10.96461
       O   -12.40479  -18.39048  -10.66740
      H1   -11.89964  -19.11764  -11.03333
       H   -12.98046  -13.89670  -11.81905
       O   -13.49316  -14.52679  -11.18844
      H1   -12.86119  -14.93189  -10.56676
       H   -13.69178  -14.92383   -5.42173
       O   -13.62787  -15.76608   -5.91288
      H1   -13.24864  -15.53197   -6.82174

