72
frame 9 | Written by MDAnalysis XYZWriter (release 2.4.3)
       H   -16.47892   -6.13625    9.29641
       O   -16.84971   -6.79357    8.66960
      H1   -17.29269   -6.27947    8.02167
       H   -17.76999    1.37099   10.61577
       O   -18.22789    1.06381   11.44796
      H1   -18.24085    1.80203   12.11405
       H   -16.57512    1.20208    5.46721
       O   -16.48898    0.50038    4.78409
      H1   -16.58529    0.97495    3.93163
       H   -16.71417    3.58879    6.44042
       O   -17.11222    2.77016    6.87067
      H1   -18.03001    2.96111    7.04901
       H   -13.27521    1.98543    9.50613
       O   -12.60917    2.41759    8.90031
      H1   -12.43081    1.67021    8.29655
       H   -15.74369   -3.42815   12.55650
       O   -15.75577   -2.75637   11.86939
      H1   -16.59725   -2.32981   12.04380
       H   -15.05340   -4.91198   10.94053
       O   -14.82981   -5.30025   10.06446
      H1   -14.16921   -4.67559    9.69722
       H   -14.85490    1.34337   11.44352
       O   -14.59710    2.10540   10.96575
      H1   -15.20883    2.05798   10.20889
       H   -12.09556   -0.50478    5.02914
       O   -11.18321   -0.56865    4.71920
      H1   -10.67048   -0.14296    5.45903
       H   -16.96542    1.75625    8.42176
       O   -16.73645    1.39165    9.32315
      H1   -16.15164    0.60277    9.13247
       H   -14.46956   -1.52552    4.98978
       O   -14.18118   -0.68197    5.28873
      H1   -14.92039   -0.10644    4.97754
       H   -10.68911   -3.57795    7.34934
       O   -11.36760   -2.92580    6.96845
      H1   -11.10205   -2.67251    6.06934
       H   -12.73003   -0.87640   11.57476
       O   -12.78416   -1.58696   10.89801
      H1   -13.64645   -1.47252   10.48721
       H   -15.24959   -0.91887   12.21113
       O   -15.03628   -0.13337   12.68846
      H1   -14.03540    0.00306   12.80271
       H   -13.90113   -3.97894    4.03209
       O   -14.68892   -3.40517    4.13658
      H1   -15.15202   -3.76015    4.91402
       H   -19.90991   -2.33313    9.59908
       O   -19.43654   -2.55299    8.82170
      H1   -19.76933   -1.96014    8.12507
       H   -11.96064   -0.49430    7.81122
       O   -12.83267   -0.02484    7.71891
      H1   -13.20180   -0.22890    6.89436
       H   -14.10629   -0.46956    8.66187
       O   -14.93677   -0.82724    9.08971
      H1   -15.08043   -1.58707    8.52948
       H   -17.24397   -1.15502    5.60125
       O   -17.68508   -1.97338    5.93759
      H1   -17.70271   -2.41005    5.09552
       H   -11.74062   -6.43593    7.92542
       O   -11.47481   -6.37127    8.83548
      H1   -12.18663   -5.76825    9.15832
       H   -11.40668   -0.76582   10.04057
       O   -10.67187   -0.41237    9.48700
      H1   -10.47852    0.47101    9.87819
       H   -13.75296   -4.64970    6.82801
       O   -14.71036   -4.92745    6.70382
      H1   -15.23312   -4.44137    7.32787
       H   -17.23122   -3.23519    8.43364
       O   -16.29765   -3.51709    8.47680
      H1   -16.17093   -3.94741    9.30660
       H   -12.55746   -3.23058    9.88513
       O   -12.65522   -3.83954    9.14598
      H1   -12.09884   -3.47154    8.47452

