72
frame 8 | Written by MDAnalysis XYZWriter (release 2.4.3)
       H    -6.32800  -16.89236   10.02289
       O    -5.88499  -16.39435    9.36692
      H1    -5.26541  -16.99677    8.93990
       H    -5.94667  -17.41617   12.91372
       O    -6.19307  -16.46300   12.91066
      H1    -5.46750  -15.94954   12.45173
       H     0.24651  -12.14763   11.22637
       O     0.68811  -12.99789   11.30210
      H1     0.86660  -13.22179   10.37193
       H    -9.07792   -9.94292   10.29085
       O    -8.38677   -9.99224    9.61203
      H1    -8.36304  -10.89192    9.32056
       H    -8.60330  -12.97494   12.08200
       O    -7.86125  -12.92789   12.69533
      H1    -7.29733  -12.18121   12.38796
       H    -7.11564  -13.80041   13.97903
       O    -6.40898  -14.06023   14.65616
      H1    -5.93682  -14.78748   14.12348
       H    -2.80462   -8.95982   12.29218
       O    -1.94982   -8.54437   12.05388
      H1    -2.11542   -8.12802   11.11863
       H    -2.06595  -16.35704    8.47311
       O    -2.11010  -15.79739    7.62699
      H1    -2.26229  -16.45190    6.95609
       H    -1.40977  -12.29485   14.54137
       O    -1.68957  -11.57892   15.11369
      H1    -0.99668  -10.90071   15.06574
       H    -5.06053  -11.10452   16.42938
       O    -4.68742  -10.60647   15.63583
      H1    -3.80396  -11.00394   15.51105
       H    -4.66076  -15.58901   10.63848
       O    -4.56461  -15.06270   11.46547
      H1    -3.73865  -15.18841   11.96456
       H    -1.30127  -18.03952    9.53659
       O    -1.97798  -17.40715    9.78431
      H1    -2.17899  -17.34037   10.73577
       H    -3.76458  -12.03087   10.73255
       O    -4.14438  -12.42364   11.53295
      H1    -4.31839  -13.31740   11.24365
       H    -5.16861  -11.73605   12.79437
       O    -5.82767  -11.16545   13.27006
      H1    -5.58852  -11.08968   14.17983
       H    -0.69591  -13.48408   12.31314
       O    -1.31147  -13.36415   13.08427
      H1    -2.10821  -12.92753   12.69289
       H    -4.26988   -9.12880    7.61425
       O    -5.02222   -9.21717    8.21751
      H1    -5.80662   -9.02888    7.68277
       H    -7.51057  -14.68905   11.06170
       O    -8.07828  -15.48175   11.17833
      H1    -7.53072  -16.03784   11.75623
       H    -5.11074   -9.90032   12.44902
       O    -4.52659   -9.21188   12.09518
      H1    -4.77882   -8.35157   12.32744
       H    -8.70680  -14.99101    8.52043
       O    -7.80569  -14.81165    8.20662
      H1    -7.19041  -15.24054    8.75217
       H    -4.65257  -11.99203    6.80824
       O    -5.17586  -11.51064    6.12012
      H1    -5.34004  -12.09566    5.34466
       H    -3.66442  -15.75235   15.90231
       O    -3.81580  -16.25657   15.09138
      H1    -3.34057  -15.74082   14.44511
       H    -7.56233  -12.93766    7.90380
       O    -7.45471  -11.98081    7.74366
      H1    -6.55563  -11.87167    7.37276
       H    -3.02020  -11.48619    8.29561
       O    -3.93808  -11.82874    8.51134
      H1    -4.42366  -10.99559    8.44370
       H    -1.74380  -14.80870   13.03808
       O    -2.14894  -15.69316   12.98915
      H1    -1.35116  -16.22171   13.10623

