72
frame 9 | Written by MDAnalysis XYZWriter (release 2.4.3)
       H   -13.13031  -13.07554  -18.39625
       O   -13.98674  -13.06044  -18.90902
      H1   -14.39370  -12.22515  -18.54906
       H   -11.48319  -14.58533  -17.61248
       O   -11.97972  -13.83476  -17.25333
      H1   -11.30578  -13.24730  -16.95231
       H    -4.27658  -19.25210  -16.33058
       O    -4.70800  -18.54240  -16.78999
      H1    -5.55213  -18.88630  -17.09229
       H    -7.71316  -16.21224  -15.06945
       O    -8.52404  -16.07734  -14.50301
      H1    -8.43330  -16.46186  -13.61222
       H   -10.96557  -16.52263  -12.24876
       O   -11.04756  -16.25253  -11.29751
      H1   -10.16209  -16.53844  -10.96476
       H   -13.87506  -17.68267  -17.52785
       O   -14.44949  -18.31140  -17.97401
      H1   -14.21018  -18.19548  -18.94667
       H    -9.17346  -14.32335  -14.26272
       O    -9.34499  -13.40673  -14.04350
      H1    -8.64813  -13.19439  -13.40394
       H   -13.26323  -15.82874  -15.13281
       O   -12.84927  -14.96577  -14.91950
      H1   -12.50503  -14.66670  -15.75093
       H   -17.86518  -13.38123  -17.39843
       O   -17.56274  -14.19123  -16.93732
      H1   -16.76761  -13.88452  -16.39734
       H    -6.48331  -16.83073  -16.61659
       O    -6.43861  -15.90304  -16.38327
      H1    -5.91907  -15.99261  -15.59453
       H   -10.06156  -12.36957  -15.30250
       O   -10.38659  -11.80686  -16.01423
      H1    -9.54170  -11.60486  -16.39754
       H   -14.89224  -12.62743  -15.94771
       O   -15.22039  -13.54190  -15.82161
      H1   -14.51895  -14.14518  -15.53872
       H   -12.38681  -10.80245  -19.54468
       O   -11.67977  -11.00331  -18.94942
      H1   -11.32755  -11.86986  -19.23247
       H   -15.10631  -14.35649  -18.79712
       O   -15.75072  -15.06469  -18.84841
      H1   -16.38346  -14.93489  -18.17827
       H   -17.39542  -16.85970  -16.90709
       O   -17.28652  -17.45655  -17.69771
      H1   -16.32729  -17.64799  -17.63757
       H   -12.47589  -11.85822  -13.77095
       O   -12.94864  -12.63541  -13.37032
      H1   -12.87455  -13.36987  -14.00784
       H   -11.07250  -17.75916  -17.76591
       O   -11.24918  -16.82605  -17.62583
      H1   -10.33681  -16.51376  -17.67443
       H   -13.89365  -17.86690  -11.21576
       O   -14.82987  -17.73480  -11.46437
      H1   -14.79615  -17.53578  -12.42662
       H    -8.34619  -15.72398  -18.54129
       O    -8.87577  -15.57724  -17.76104
      H1    -8.23634  -15.51746  -17.01121
       H    -6.32396  -15.08105  -19.41320
       O    -5.63823  -14.64540  -18.85020
      H1    -5.79360  -15.01795  -17.99140
       H   -11.86699  -16.18867  -14.01413
       O   -11.27846  -16.94535  -13.95679
      H1   -10.51510  -16.82204  -14.50159
       H   -15.05353  -17.67189  -14.55762
       O   -14.85507  -16.81850  -14.15174
      H1   -15.73829  -16.39848  -14.13785
       H    -7.02338  -12.95810  -18.35131
       O    -7.54237  -12.23184  -18.03756
      H1    -7.54389  -11.49725  -18.66742
       H   -12.13968  -10.46951  -17.15729
       O   -12.78641  -10.08316  -16.63129
      H1   -12.46650  -10.04973  -15.74324

