72
frame 9 | Written by MDAnalysis XYZWriter (release 2.4.3)
       H   -14.68388   12.20490   -9.73596
       O   -14.96867   12.16388   -8.85003
      H1   -15.52223   12.95922   -8.70401
       H   -15.26591   12.65546  -12.32318
       O   -14.97522   11.78154  -11.90156
      H1   -15.67417   11.46439  -11.33979
       H   -15.86720   15.84639  -12.35341
       O   -16.34735   16.70310  -12.28014
      H1   -16.16406   17.07814  -11.44757
       H   -19.07081   16.79008  -10.94329
       O   -19.52526   17.56815  -10.61520
      H1   -19.06559   17.76538   -9.74361
       H   -11.28644   18.40369  -10.31396
       O   -11.30399   18.53242  -11.28015
      H1   -10.54029   18.02913  -11.54154
       H   -17.24486   16.71705  -14.07713
       O   -17.53437   16.44569  -14.97548
      H1   -18.11472   17.07122  -15.45187
       H   -16.82943   18.40874  -17.36317
       O   -15.92464   18.13741  -17.52959
      H1   -15.70749   17.36911  -16.93107
       H   -12.05707   15.67691  -13.93092
       O   -12.61220   14.86748  -13.77350
      H1   -12.01660   14.15056  -14.01773
       H   -15.25923   19.89475  -16.10580
       O   -15.01803   20.06744  -15.21107
      H1   -14.38556   19.37334  -14.89784
       H   -19.07519   11.42400  -13.35789
       O   -18.20774   11.53972  -12.89915
      H1   -17.95592   12.33151  -13.37133
       H   -14.33596   14.52489  -13.35635
       O   -15.30839   14.49838  -13.24462
      H1   -15.73456   14.29491  -14.10954
       H   -18.00902   14.32174   -8.58111
       O   -17.32658   13.77290   -8.06197
      H1   -17.20089   14.20329   -7.17379
       H   -14.26724   16.86206   -9.75162
       O   -14.37483   15.92323   -9.62919
      H1   -13.53647   15.66301   -9.96385
       H   -19.81808   14.16113   -9.83029
       O   -19.73993   14.60493   -8.98134
      H1   -19.47523   15.53906   -9.12885
       H   -19.24688   19.09514  -16.75739
       O   -18.30999   19.20418  -16.51358
      H1   -18.05490   19.99649  -17.01363
       H   -12.87671   15.42228   -8.23311
       O   -12.24921   14.95638   -7.70883
      H1   -12.04517   15.69956   -7.06504
       H   -17.51822   18.45071   -7.86710
       O   -18.19566   17.85471   -8.23975
      H1   -18.90513   17.68020   -7.61461
       H   -15.31251   17.72149   -7.14259
       O   -15.07061   16.85020   -6.77696
      H1   -15.62287   16.33209   -7.30387
       H   -11.27056   16.94108  -15.11503
       O   -11.07833   17.12699  -14.13776
      H1   -11.89783   17.50540  -13.79480
       H   -17.84998   15.55573  -11.82038
       O   -18.60290   15.07416  -11.52106
      H1   -19.08209   14.85324  -12.36709
       H   -14.95917   13.24261  -16.28181
       O   -15.53113   12.95779  -15.53479
      H1   -16.40853   13.18494  -15.92845
       H   -12.47151   15.14689  -11.64984
       O   -12.06446   15.36438  -10.83654
      H1   -11.78634   16.31626  -11.07363
       H   -14.27515   17.25517  -14.61274
       O   -13.84584   17.76812  -13.92292
      H1   -14.50605   17.97986  -13.26622
       H   -14.45586   15.45836  -16.26965
       O   -14.90679   16.25329  -15.97293
      H1   -15.77962   15.93279  -15.70962

