72
frame 10 | Written by MDAnalysis XYZWriter (release 2.4.3)
       H    -9.01531  -19.23619   -7.00812
       O    -8.62584  -19.45454   -6.13389
      H1    -9.34481  -19.89400   -5.63151
       H    -9.26129  -16.94229   -3.39104
       O    -9.21466  -16.84988   -4.39225
      H1    -8.42047  -17.33236   -4.62323
       H   -11.74147  -19.28638   -4.55715
       O   -11.37818  -20.05463   -5.04184
      H1   -11.89204  -20.07446   -5.86215
       H   -10.71139  -16.92208  -12.01720
       O   -10.72918  -16.69584  -11.04000
      H1    -9.86772  -17.09007  -10.76121
       H   -17.32296  -19.63957   -5.37441
       O   -16.90062  -18.77218   -5.12015
      H1   -17.63079  -18.20622   -4.88348
       H   -12.19842  -19.09868   -8.61809
       O   -12.28210  -19.23956   -7.68443
      H1   -13.18817  -19.05129   -7.41042
       H    -8.98626  -16.13202   -7.90165
       O    -8.29397  -15.45910   -7.99489
      H1    -8.55143  -15.01975   -7.23738
       H    -7.15263  -18.68081   -5.10116
       O    -6.64885  -17.85624   -5.19477
      H1    -6.80301  -17.70154   -6.13756
       H    -6.22440  -17.06612   -7.86919
       O    -6.60800  -17.93781   -7.94475
      H1    -7.55072  -17.84292   -8.11643
       H   -15.39206  -18.48575   -6.31130
       O   -14.67320  -18.29725   -6.88700
      H1   -14.47015  -17.33978   -6.70401
       H    -9.03398  -18.80666   -9.74475
       O    -9.38138  -18.89157   -8.83898
      H1    -9.74197  -19.76545   -8.90954
       H    -8.73993  -15.26368   -4.97043
       O    -8.54135  -14.37724   -5.47958
      H1    -9.22433  -13.84477   -5.05894
       H   -14.63426  -16.75994   -2.01065
       O   -15.00491  -17.17682   -2.80953
      H1   -15.18909  -18.10826   -2.48355
       H   -14.45857  -18.49223  -10.94602
       O   -15.00318  -17.78652  -11.22578
      H1   -14.78869  -17.47816  -12.13830
       H   -17.98154  -17.59855   -1.55197
       O   -18.21823  -18.39986   -2.08133
      H1   -17.45719  -18.57834   -2.65104
       H   -11.69995  -14.32370   -8.07033
       O   -11.69988  -14.39027   -7.16238
      H1   -11.43928  -15.24983   -6.99694
       H   -10.98949  -17.71769   -7.07683
       O   -10.53985  -16.87378   -6.92898
      H1   -10.08606  -17.07742   -6.05669
       H   -13.40016  -17.66187   -3.52294
       O   -12.63095  -17.67589   -4.07004
      H1   -12.88778  -17.27640   -4.84943
       H   -11.74777  -18.54763  -10.69974
       O   -12.43808  -19.12626  -10.26060
      H1   -12.05158  -20.01525  -10.44707
       H   -15.50049  -15.99212   -8.75558
       O   -15.32697  -15.64809   -9.61799
      H1   -15.33733  -16.40632  -10.25254
       H   -12.01575  -15.76707   -1.63246
       O   -11.37855  -15.91112   -2.32483
      H1   -11.90156  -16.56378   -2.83730
       H   -16.07263  -14.83891   -3.96405
       O   -16.70559  -15.49730   -4.13496
      H1   -16.34987  -16.23216   -3.54441
       H   -11.15851  -13.18898   -3.98173
       O   -10.42639  -13.58299   -3.49398
      H1   -10.72619  -14.31273   -2.95433
       H   -14.19785  -15.44929   -5.05223
       O   -13.73973  -15.87782   -5.79726
      H1   -13.31432  -15.13374   -6.30722

