72
frame 10 | Written by MDAnalysis XYZWriter (release 2.4.3)
       H     2.14233   15.69221  -15.84905
       O     3.05550   15.55557  -16.14926
      H1     3.01568   15.63848  -17.14585
       H     4.79920   18.43464  -15.09748
       O     4.12420   17.85233  -14.74388
      H1     4.00949   17.25165  -15.51220
       H     6.57856   16.46542  -18.48656
       O     6.01978   17.15202  -18.80074
      H1     6.37295   17.99431  -18.44109
       H    11.16111   14.70160  -19.51002
       O    10.17136   14.70129  -19.55086
      H1     9.88450   14.70362  -18.65859
       H     5.13466   15.58060  -14.06731
       O     5.58535   14.79486  -14.38465
      H1     5.03224   14.54435  -15.12154
       H     6.05834   20.04769  -13.08004
       O     6.63301   19.31695  -13.30780
      H1     7.49071   19.72322  -13.09188
       H    12.17172   17.05394  -19.63475
       O    11.71247   16.86616  -18.78869
      H1    10.90818   16.36560  -19.06075
       H     8.77370   16.89556  -11.92321
       O     8.80386   16.34449  -12.72474
      H1     8.74268   15.48360  -12.37644
       H     5.73244   13.53883  -12.88047
       O     5.34936   13.04847  -12.11386
      H1     4.43341   13.30062  -12.18029
       H     6.97215   17.35700  -14.57565
       O     7.03108   16.98634  -15.47181
      H1     6.64779   16.14415  -15.36774
       H     2.64904   18.07639  -13.76964
       O     1.66967   18.27637  -13.48944
      H1     1.73078   17.99125  -12.52613
       H    10.13152   16.80508  -16.53704
       O     9.41560   16.24285  -16.79383
      H1     8.63673   16.63442  -16.40038
       H     6.45473   13.25215  -17.51170
       O     7.12730   13.25082  -18.20530
      H1     7.93629   13.44110  -17.69418
       H     9.32323   14.39922  -16.37439
       O     9.28717   13.40497  -16.48414
      H1     8.95280   13.00791  -15.62269
       H    12.76197   15.12390  -16.40962
       O    12.46281   15.99950  -16.27967
      H1    12.35507   16.31762  -17.18662
       H    11.25547   16.11922  -14.66929
       O    11.20029   16.47353  -13.82327
      H1    10.26885   16.40225  -13.54951
       H     5.89602   20.40040  -15.67583
       O     5.76643   19.53899  -16.14790
      H1     6.50447   18.91777  -16.00707
       H     3.89511   13.29419  -16.83286
       O     4.71575   12.86507  -16.53666
      H1     4.40908   12.12105  -15.99182
       H    10.54907   20.20009  -19.05788
       O    10.07348   19.36689  -18.81442
      H1    10.41357   18.73906  -19.48766
       H    10.22058   19.31859  -15.44390
       O    11.05095   19.34612  -14.97357
      H1    11.14095   18.47024  -14.54411
       H     2.70655   16.71946  -18.77588
       O     3.38770   16.02057  -18.81091
      H1     4.20112   16.53505  -18.92670
       H     0.54385   17.48796  -17.58136
       O     1.25576   17.82231  -18.17196
      H1     1.72470   18.51222  -17.68619
       H    10.72380   12.52975  -16.69340
       O    11.43184   11.89686  -16.71686
      H1    11.14891   11.21726  -17.34638
       H     1.35864   13.25419  -18.00569
       O     1.91724   12.78514  -17.37772
      H1     2.41373   12.11853  -17.82757

