72
frame 10 | Written by MDAnalysis XYZWriter (release 2.4.3)
       H     8.80973    5.10586  -13.97918
       O     8.25163    4.93851  -13.24794
      H1     8.15982    5.76371  -12.76255
       H    13.11173    9.43661  -13.18336
       O    13.44453   10.28817  -13.46327
      H1    13.81317   10.68066  -12.59954
       H    11.74050    5.98078   -7.45436
       O    11.18887    5.34977   -7.00350
      H1    11.63156    5.31349   -6.13353
       H    13.34919   11.69299  -10.95822
       O    14.11381   12.04445  -11.44965
      H1    13.83542   12.92792  -11.65164
       H    14.71238    8.56912   -9.04923
       O    14.29733    8.43795   -9.91583
      H1    13.76146    9.25644  -10.02654
       H    13.83455    6.79754  -16.08911
       O    14.48457    7.26754  -16.59439
      H1    15.20763    6.63400  -16.77668
       H    12.77489    3.52809  -12.04967
       O    13.20467    4.33458  -12.30497
      H1    14.15024    3.96841  -12.36755
       H    11.57146   10.43135   -9.75002
       O    12.50499   10.62775   -9.68766
      H1    12.65184   11.13776   -8.92143
       H    12.63488    6.76200  -14.18847
       O    12.41113    6.38016  -15.09544
      H1    12.54406    5.42792  -14.97223
       H    13.98969    7.51718  -12.40670
       O    13.07100    7.67237  -12.64871
      H1    12.41414    7.34753  -12.04571
       H    15.08516    8.46663  -15.64575
       O    15.47682    9.01508  -14.95444
      H1    14.76534    9.57318  -14.64059
       H     7.87680    8.41319  -12.20186
       O     8.13314    7.48025  -12.36294
      H1     8.48569    7.47498  -13.29380
       H     9.87639   10.21958   -8.94962
       O     9.76671   10.21362   -9.88241
      H1     9.83877    9.28849  -10.17793
       H    11.66699    6.95105  -18.29217
       O    10.99933    6.64164  -17.66759
      H1    11.44564    6.41569  -16.83444
       H    16.54461    7.76296  -12.56901
       O    15.83319    7.23289  -12.92813
      H1    15.57403    7.63817  -13.73770
       H    11.96021   11.78209  -13.20578
       O    11.25079   12.39812  -13.04358
      H1    11.11347   12.36516  -12.09825
       H     8.61856    6.96043   -8.23556
       O     8.62784    7.80278   -8.66278
      H1     7.71312    8.13608   -8.46054
       H     9.68167    7.57533  -11.68951
       O    10.51197    7.64177  -11.09793
      H1    10.22947    6.98463  -10.43359
       H     8.25157    8.13818  -15.46282
       O     9.07059    7.65355  -15.20605
      H1     9.81224    8.18115  -15.60514
       H    16.42442    8.21658  -10.46918
       O    17.31474    8.48319  -10.88797
      H1    17.15950    9.28742  -11.44622
       H    15.22544    4.79729   -8.08437
       O    15.23838    5.53327   -8.68660
      H1    14.42611    5.44014   -9.18502
       H    11.97457    1.98469  -12.16795
       O    11.51598    2.32450  -11.36411
      H1    10.59793    2.55056  -11.66110
       H    13.30653    7.01662   -9.95468
       O    12.85817    6.19287   -9.89632
      H1    12.97884    5.70431  -10.72064
       H    15.73658    5.45234  -12.88316
       O    15.96526    4.49007  -12.91561
      H1    16.57435    4.41170  -13.61763

