72
frame 10 | Written by MDAnalysis XYZWriter (release 2.4.3)
       H   -18.67748    0.27856   -4.38861
       O   -18.37447    1.20081   -4.65242
      H1   -18.03846    1.03054   -5.53830
       H   -16.40561   -4.70122   -3.01161
       O   -16.52501   -4.05200   -3.67472
      H1   -17.27563   -4.22079   -4.18552
       H   -16.19713   -7.03999   -2.81415
       O   -15.95654   -6.61641   -1.97602
      H1   -14.97323   -6.54745   -1.92219
       H   -17.17284   -5.89537   -7.53960
       O   -17.88523   -6.49929   -7.17536
      H1   -18.32867   -6.07647   -6.40172
       H   -13.92155   -3.57119   -5.87339
       O   -14.14286   -4.35272   -5.30841
      H1   -14.52379   -4.09095   -4.48418
       H   -13.26678   -2.80190   -1.00010
       O   -12.55429   -2.21482   -0.92557
      H1   -11.99091   -2.50188   -0.12713
       H   -15.95409   -3.99454   -7.74384
       O   -15.84349   -4.80985   -8.29379
      H1   -16.15650   -4.40774   -9.11784
       H   -16.22276   -3.20697   -5.90542
       O   -16.69559   -2.88259   -6.65030
      H1   -16.12912   -2.10899   -6.88923
       H   -18.94341   -6.85943   -0.26440
       O   -19.57130   -6.39193   -0.81383
      H1   -19.93509   -5.60140   -0.31578
       H   -19.34698   -5.62253   -4.53846
       O   -18.78321   -4.97321   -4.99646
      H1   -19.34953   -4.21665   -5.13103
       H   -14.12982   -6.61503   -7.97162
       O   -13.68363   -6.58933   -7.13047
      H1   -14.06895   -5.84384   -6.66365
       H   -20.32573   -2.52267   -6.44668
       O   -19.59287   -2.29342   -5.92909
      H1   -18.81173   -2.60080   -6.38948
       H   -13.15914   -0.51685   -3.86706
       O   -14.00592   -0.23770   -4.20765
      H1   -13.96322    0.69594   -4.33770
       H   -15.94241   -9.23911   -3.17712
       O   -15.63292  -10.06551   -2.66906
      H1   -15.92581  -10.82559   -3.17181
       H   -12.15131   -4.11980   -4.02465
       O   -12.21128   -4.36917   -3.04596
      H1   -11.65452   -3.74102   -2.55269
       H   -14.20363   -0.54726   -7.42747
       O   -14.81795   -0.79288   -6.73308
      H1   -14.41582   -0.70539   -5.86205
       H   -18.68089   -2.37197   -0.82949
       O   -19.32841   -2.72459   -0.23845
      H1   -19.50485   -2.07683    0.47766
       H   -16.84662   -2.49623   -2.57153
       O   -17.25826   -1.96684   -1.95362
      H1   -16.53440   -1.42491   -1.69748
       H   -19.56183   -1.52901   -3.84875
       O   -19.42085   -0.83645   -3.15420
      H1   -18.53588   -1.06995   -2.76893
       H   -15.36975    0.38579   -2.51464
       O   -15.79049    0.43425   -1.62869
      H1   -16.34899    1.23317   -1.55395
       H   -13.07167   -7.42795   -2.03912
       O   -13.31345   -6.54602   -1.76567
      H1   -12.88003   -5.93798   -2.43467
       H   -17.39450   -8.38540   -4.56203
       O   -16.56625   -7.97747   -4.33647
      H1   -16.41328   -7.29551   -4.94297
       H   -17.80728   -8.44811    0.63344
       O   -17.23900   -7.70278    0.45872
      H1   -17.17363   -7.57055   -0.56199
       H   -15.59155   -4.05410   -0.10656
       O   -14.73025   -3.72737   -0.31478
      H1   -14.47015   -3.13016    0.43740

