72
frame 10 | Written by MDAnalysis XYZWriter (release 2.4.3)
       H   -16.40561   -4.70122   -3.01161
       O   -16.52501   -4.05200   -3.67472
      H1   -17.27563   -4.22079   -4.18552
       H   -16.19713   -7.03999   -2.81415
       O   -15.95654   -6.61641   -1.97602
      H1   -14.97323   -6.54745   -1.92219
       H   -17.21224  -12.00443    0.34633
       O   -17.29981  -11.11802   -0.02879
      H1   -16.90139  -10.55483    0.65015
       H   -18.94341   -6.85943   -0.26440
       O   -19.57130   -6.39193   -0.81383
      H1   -19.93509   -5.60140   -0.31578
       H   -18.07572  -10.16760   -1.19225
       O   -18.74947   -9.91481   -1.80118
      H1   -19.61966  -10.33852   -1.52927
       H   -19.34698   -5.62253   -4.53846
       O   -18.78321   -4.97321   -4.99646
      H1   -19.34953   -4.21665   -5.13103
       H   -15.45963   -4.09098    2.82732
       O   -16.22199   -4.32705    2.29225
      H1   -15.85424   -4.95192    1.67031
       H   -12.78258   -9.95961    1.95745
       O   -12.56784   -9.12399    1.43249
      H1   -12.28721   -9.50430    0.60317
       H   -13.94730   -9.51730   -3.43593
       O   -13.01678   -9.67631   -3.69662
      H1   -12.68962   -9.13062   -4.40619
       H   -15.94241   -9.23911   -3.17712
       O   -15.63292  -10.06551   -2.66906
      H1   -15.92581  -10.82559   -3.17181
       H   -18.79081   -9.89073    2.20518
       O   -19.19625   -9.00345    1.92108
      H1   -20.04841   -9.35588    1.56324
       H   -17.94245  -13.11385   -2.80023
       O   -17.18748  -12.58396   -2.54415
      H1   -17.53554  -11.85799   -1.98407
       H   -15.66549   -9.25746    2.40812
       O   -15.54323  -10.17108    2.00035
      H1   -14.57671  -10.19216    1.76280
       H   -18.60542   -5.33390    4.53612
       O   -18.24889   -4.54549    4.16245
      H1   -17.67557   -4.70576    3.40139
       H   -18.68089   -2.37197   -0.82949
       O   -19.32841   -2.72459   -0.23845
      H1   -19.50485   -2.07683    0.47766
       H   -16.84662   -2.49623   -2.57153
       O   -17.25826   -1.96684   -1.95362
      H1   -16.53440   -1.42491   -1.69748
       H   -19.13355   -9.32025   -3.50621
       O   -19.52150   -8.86168   -4.30159
      H1   -20.05859   -8.10464   -3.88797
       H   -14.73643   -7.23045    2.31250
       O   -15.62926   -7.44495    2.64086
      H1   -16.19961   -7.26271    1.81665
       H   -13.07167   -7.42795   -2.03912
       O   -13.31345   -6.54602   -1.76567
      H1   -12.88003   -5.93798   -2.43467
       H   -17.39450   -8.38540   -4.56203
       O   -16.56625   -7.97747   -4.33647
      H1   -16.41328   -7.29551   -4.94297
       H   -17.80728   -8.44811    0.63344
       O   -17.23900   -7.70278    0.45872
      H1   -17.17363   -7.57055   -0.56199
       H   -16.49223   -5.95342    5.77671
       O   -16.57432   -6.85184    5.57079
      H1   -16.36847   -7.02588    4.63993
       H   -13.48590   -6.34336    0.28804
       O   -13.48809   -6.60754    1.19710
      H1   -13.18352   -7.56158    1.19589
       H   -15.59155   -4.05410   -0.10656
       O   -14.73025   -3.72737   -0.31478
      H1   -14.47015   -3.13016    0.43740

