72
frame 11 | Written by MDAnalysis XYZWriter (release 2.4.3)
       H   -16.35478   -1.27812  -10.00137
       O   -15.54736   -0.94752  -10.36378
      H1   -15.00529   -0.57364   -9.64318
       H   -11.36809   -0.60585  -10.21244
       O   -11.44970    0.23091   -9.72956
      H1   -11.74976    0.94997  -10.34226
       H   -17.62974    4.39406   -9.22797
       O   -17.71357    5.16533   -9.78096
      H1   -18.42299    4.94355  -10.42101
       H   -17.54633    2.04758   -9.83811
       O   -16.72818    2.53949   -9.82305
      H1   -16.91033    3.37993  -10.26393
       H   -15.21428    5.57678  -16.88021
       O   -15.46061    4.84067  -16.29333
      H1   -14.70805    4.20986  -16.49551
       H   -14.64251    2.61046   -9.82203
       O   -13.85662    2.82121  -10.27453
      H1   -13.20710    3.12136   -9.64502
       H   -14.76131    7.91018  -11.43796
       O   -13.99969    8.02936  -11.94665
      H1   -13.89981    8.96897  -12.12048
       H   -13.90410    1.13048   -7.93779
       O   -13.80296    0.22888   -8.17292
      H1   -12.98292    0.21651   -8.66266
       H   -10.14033    5.28517  -13.81536
       O    -9.75172    6.03084  -14.30882
      H1    -9.17266    5.72520  -15.03330
       H   -11.32707    4.98436  -11.86022
       O   -11.21125    4.42583  -12.62837
      H1   -12.09376    4.19186  -13.01290
       H   -15.44658    5.56748  -14.54051
       O   -15.43167    5.79654  -13.59112
      H1   -14.59935    6.28246  -13.35230
       H   -15.53513    6.64609   -9.55595
       O   -15.94774    7.28187  -10.19795
      H1   -16.67371    6.88296  -10.65829
       H   -13.96238    6.28075   -7.82465
       O   -14.08344    5.50972   -8.45019
      H1   -13.28382    5.51020   -8.98175
       H   -10.45005    3.01651  -12.05920
       O    -9.85744    2.29548  -11.72088
      H1    -9.02425    2.45421  -12.18369
       H   -14.05165    3.05633   -6.38535
       O   -14.42105    2.76296   -7.19937
      H1   -14.60096    3.56762   -7.70981
       H   -11.50877    6.19115  -10.09496
       O   -11.54929    5.25947   -9.80232
      H1   -10.89522    5.11827   -9.12056
       H   -16.56786    1.71305  -11.29522
       O   -16.89596    1.51429  -12.24519
      H1   -16.82099    0.50356  -12.21648
       H   -17.18540    6.47856  -12.71455
       O   -17.75976    6.88487  -12.07906
      H1   -18.58165    6.40732  -12.00350
       H   -14.52682    4.33229  -13.34168
       O   -13.84672    3.62228  -13.30583
      H1   -13.99339    3.26974  -12.41712
       H   -11.30799    0.88834  -12.79280
       O   -11.86875    0.18603  -13.14917
      H1   -12.62848    0.74054  -13.47556
       H   -12.63264    3.50771  -17.41326
       O   -12.69150    3.51811  -16.44742
      H1   -12.31356    4.37544  -16.13151
       H   -12.44997    6.32903  -15.35858
       O   -11.75078    5.76902  -15.78502
      H1   -10.89940    5.88561  -15.37366
       H   -20.03440    1.65732  -12.57048
       O   -19.26898    1.42404  -13.16897
      H1   -18.44214    1.46400  -12.69299
       H   -15.60511    1.30663  -13.48994
       O   -14.89944    1.20272  -14.14673
      H1   -14.58555    2.08710  -14.28820

