72
frame 10 | Written by MDAnalysis XYZWriter (release 2.4.3)
       H    -3.32067    4.58016   12.60245
       O    -3.42130    3.64775   12.25649
      H1    -4.16241    3.47259   12.90937
       H    -7.44020    2.53013   12.12835
       O    -7.20071    1.64789   12.34709
      H1    -6.51764    1.77429   12.95848
       H   -10.94912    7.35355   12.74555
       O   -11.29913    6.84175   13.49003
      H1   -12.11332    7.15323   13.79259
       H    -8.56511    8.46242    6.52013
       O    -8.02443    7.72714    6.99269
      H1    -8.61073    7.23977    7.59275
       H   -10.66431    3.98321   14.83881
       O   -10.25383    4.41025   14.04730
      H1   -10.51661    5.34769   13.87597
       H    -9.40826    7.69543   10.92254
       O   -10.02431    8.12970   11.53583
      H1    -9.50876    8.71724   12.13469
       H    -5.91124    6.17810    9.64921
       O    -5.81865    7.08413    9.94318
      H1    -6.07410    7.73952    9.21412
       H    -8.29829    5.11262   12.04320
       O    -8.37864    4.13743   11.83416
      H1    -9.25464    3.83643   12.04708
       H    -6.61012   11.78036   13.10822
       O    -7.23035   11.48858   12.39562
      H1    -6.63422   11.53799   11.59070
       H    -8.61212    3.58147   10.01863
       O    -8.52933    3.62797    9.03684
      H1    -7.61041    3.88739    8.81847
       H    -4.75883    8.44392   10.17949
       O    -4.25751    9.29253   10.18074
      H1    -4.08853    9.42876   11.13510
       H   -10.05626    8.49046   15.85494
       O   -10.09095    7.52392   16.13880
      H1   -10.63201    7.22980   15.38493
       H    -6.70096    7.48457   15.23731
       O    -6.15866    7.86780   14.55203
      H1    -5.32391    8.12296   15.05141
       H    -5.42398    3.72462    8.82034
       O    -5.98423    4.54191    8.69333
      H1    -5.90892    4.69007    7.74625
       H   -11.64757    2.61065   11.19858
       O   -10.83436    2.62745   11.76773
      H1   -11.15083    3.14564   12.52800
       H    -6.65064    6.75342   11.76504
       O    -7.32142    6.52330   12.41956
      H1    -6.83316    6.71926   13.23875
       H    -8.28489    8.82572   13.74901
       O    -8.87059    9.57367   13.55191
      H1    -8.23791   10.19988   13.11361
       H    -8.36626    4.10926   14.95889
       O    -7.84088    3.82616   15.73251
      H1    -7.66102    4.74063   16.11384
       H   -10.13043    6.84813    8.63130
       O    -9.28618    6.61337    9.07902
      H1    -9.27998    5.67706    9.04736
       H   -12.69929    8.41330    9.90143
       O   -11.91076    8.56729    9.40647
      H1   -11.18450    8.55630   10.09081
       H    -6.14796   11.97079    9.62249
       O    -5.53647   11.57464   10.22287
      H1    -5.31525   10.65104    9.96464
       H    -3.01951    5.75841   14.59794
       O    -3.15716    6.16747   13.70573
      H1    -3.48890    7.08110   13.81555
       H    -4.50954    1.82378   14.61925
       O    -5.21701    2.37340   14.19063
      H1    -5.64703    2.75276   14.93699
       H    -7.42146    7.40748   17.42075
       O    -7.67566    6.70226   16.78407
      H1    -8.57186    6.93000   16.60144

