72
frame 10 | Written by MDAnalysis XYZWriter (release 2.4.3)
       H     7.40530  -17.70082   17.40850
       O     8.26072  -17.21359   17.30364
      H1     8.04998  -16.56928   16.66131
       H     8.58227  -13.32124   12.55350
       O     9.31802  -13.86475   12.93512
      H1     8.93244  -14.32676   13.70155
       H    14.39153  -18.73041   15.73474
       O    14.52072  -18.00839   16.31657
      H1    13.75572  -17.46447   16.30457
       H     8.49457  -16.26022   19.09328
       O     9.11465  -16.29629   19.79672
      H1     9.53008  -15.39755   19.73292
       H    11.80512  -14.71634   14.27044
       O    11.41328  -14.56924   15.11605
      H1    10.67768  -15.19560   15.33485
       H     4.53577  -14.80071   19.19236
       O     4.95040  -15.65881   19.09111
      H1     5.77569  -15.29614   18.70552
       H    11.45192  -12.79438   14.66982
       O    11.40528  -11.81485   14.63693
      H1    11.51335  -11.56742   13.69049
       H    13.05955  -10.93623   15.15302
       O    14.00132  -10.73081   15.22678
      H1    14.25288  -10.23281   15.99931
       H     9.93149  -11.82981   15.85091
       O     9.07263  -11.94701   16.29753
      H1     9.21735  -12.56607   17.00768
       H     9.98732  -10.74861   17.36925
       O    10.82828  -10.32866   17.67941
      H1    10.84472  -10.55976   18.64492
       H    10.32868  -13.45949   19.63152
       O    10.18966  -13.83190   18.71856
      H1    11.13248  -13.78422   18.32740
       H    16.15878  -12.44245   17.02937
       O    17.15696  -12.36255   16.99937
      H1    17.34859  -11.93234   16.15727
       H     6.67532  -11.69646   19.12084
       O     6.51120  -11.60473   18.12725
      H1     7.00227  -10.82429   17.84840
       H     7.67130  -15.99480   14.94653
       O     8.16475  -15.19711   15.19477
      H1     7.78719  -14.76986   16.04683
       H    11.10054  -18.03735   18.14024
       O    11.37128  -17.63506   18.94296
      H1    10.67701  -16.97813   19.10748
       H    14.60777  -10.58384   18.76937
       O    15.27466  -10.28941   18.11057
      H1    16.10794  -10.46380   18.50214
       H    13.40225   -9.27265   18.06436
       O    13.06229   -8.38586   17.98269
      H1    12.15232   -8.43957   17.92782
       H    13.33559  -14.11605   17.91517
       O    12.62938  -13.50750   17.75845
      H1    12.50462  -13.51378   16.79482
       H    14.82897  -15.77247   19.66919
       O    14.58250  -15.08733   19.02040
      H1    15.42627  -15.03949   18.56888
       H     9.71998  -18.17893   16.71039
       O    10.51164  -18.75831   16.61028
      H1    10.82147  -18.67095   15.70994
       H     7.55366   -8.18472   17.37791
       O     7.69709   -9.08430   17.70919
      H1     8.59106   -9.21745   17.38547
       H     6.87813  -13.31101   17.60975
       O     6.92496  -14.29277   17.39458
      H1     6.04691  -14.58474   17.01089
       H     7.65110  -11.38956   15.13373
       O     7.38453  -11.14033   14.23115
      H1     6.55529  -10.60927   14.31925
       H    14.35524  -18.60902   18.46730
       O    13.86993  -18.93655   19.20486
      H1    13.07553  -18.32554   19.25512

