72
frame 11 | Written by MDAnalysis XYZWriter (release 2.4.3)
       H   -18.82859    0.57956   -3.59820
       O   -19.05928    1.32947   -4.13654
      H1   -18.24360    1.47225   -4.62790
       H   -16.20720   -5.14569   -2.28255
       O   -16.41210   -4.38992   -2.94842
      H1   -17.40226   -4.51115   -3.20509
       H   -17.18408    0.43642    2.17380
       O   -16.71029    1.20428    2.46659
      H1   -17.37679    1.90430    2.43747
       H   -13.75634   -3.42242   -4.82134
       O   -14.04454   -4.13484   -4.25263
      H1   -14.87412   -3.85892   -3.83513
       H   -17.47972   -3.04882   -6.90514
       O   -16.65812   -3.49297   -6.87920
      H1   -15.97576   -2.87117   -6.53882
       H   -19.81038   -5.37566   -4.89415
       O   -19.01377   -4.85371   -4.92166
      H1   -19.22752   -4.04173   -5.44626
       H   -16.21037    2.09430   -2.55636
       O   -15.42043    1.83677   -3.07038
      H1   -15.71166    1.99690   -3.99063
       H   -18.97433   -1.74023   -4.89651
       O   -19.22161   -2.21363   -5.74216
      H1   -19.40644   -1.50004   -6.40868
       H   -14.05165    3.05633   -6.38535
       O   -14.42105    2.76296   -7.19937
      H1   -14.60096    3.56762   -7.70981
       H   -13.50737   -1.09526   -3.78423
       O   -14.46159   -0.92987   -3.65580
      H1   -14.66868   -0.03568   -3.42247
       H   -14.97704    3.14131    0.15831
       O   -14.78552    4.06178    0.40500
      H1   -14.61166    4.63082   -0.34830
       H   -17.06659    3.09409   -5.74968
       O   -16.76281    2.22997   -5.54683
      H1   -16.17046    2.11219   -6.25402
       H   -17.55651    6.20968   -3.08770
       O   -17.06058    5.43223   -3.44514
      H1   -16.90871    5.52255   -4.37773
       H   -14.34576   -0.77728   -6.85763
       O   -14.78008   -1.57216   -6.42432
      H1   -14.71864   -1.48014   -5.47453
       H   -19.83494    5.67615   -0.02978
       O   -19.32581    6.49746   -0.14197
      H1   -19.30676    6.81659   -1.05292
       H   -18.82095   -1.90474   -0.03382
       O   -19.63929   -1.35753    0.10588
      H1   -19.64077   -0.91467    0.94732
       H   -17.02665   -3.48283   -0.58680
       O   -17.19068   -2.57739   -0.44767
      H1   -16.43637   -2.21210   -0.91900
       H   -19.61503   -0.89014   -2.27397
       O   -18.84250   -1.15121   -2.73529
      H1   -18.14768   -1.48040   -2.14979
       H   -14.21059    3.16398   -2.37781
       O   -13.35767    3.61636   -2.51858
      H1   -13.64203    4.55213   -2.52614
       H   -14.83683   -1.19248   -1.74421
       O   -15.15465   -1.09893   -0.82229
      H1   -15.37174   -0.19536   -0.67311
       H   -17.55205    5.33818   -7.05847
       O   -17.62200    4.70951   -6.36105
      H1   -18.36110    4.09430   -6.56261
       H   -14.27768    1.28776    0.19127
       O   -15.24997    1.44890    0.23535
      H1   -15.52337    1.33567    1.18068
       H   -18.98090    3.69108   -0.72863
       O   -19.59129    3.67807    0.08243
      H1   -19.03303    3.36538    0.83468
       H   -17.60980    3.93338   -2.82781
       O   -17.98791    3.23513   -2.29113
      H1   -18.60334    2.82101   -2.93458

