72
frame 10 | Written by MDAnalysis XYZWriter (release 2.4.3)
       H     5.59117   -8.61904    1.94003
       O     6.08272   -7.87633    1.54173
      H1     5.60576   -7.81480    0.70953
       H     1.87179   -9.00197    0.44579
       O     2.28230   -9.08656   -0.42633
      H1     3.07691   -8.53304   -0.35983
       H    -0.30950  -17.26420    3.00746
       O     0.56167  -17.68140    3.07888
      H1     1.17905  -17.01529    2.79564
       H     4.52405   -8.43790    3.96303
       O     4.27660   -7.83008    4.61254
      H1     5.00123   -7.16287    4.53181
       H     1.42906  -14.86083    1.95437
       O     2.12623  -15.49901    2.27540
      H1     2.68447  -15.67906    1.48897
       H     6.28744  -10.78097    1.71243
       O     6.79270  -11.51000    1.36761
      H1     7.37925  -11.04258    0.72465
       H     2.92745  -12.11646    2.41385
       O     3.08669  -11.27493    1.95980
      H1     2.39687  -10.73611    2.38342
       H    -0.38788  -13.34637    4.94463
       O     0.34803  -12.79518    5.26313
      H1     1.09871  -13.00671    4.74415
       H     4.08904  -17.38813    0.41393
       O     4.42429  -16.48486    0.58952
      H1     4.43572  -16.08216   -0.27773
       H     7.58157  -13.21844   -1.38306
       O     6.68507  -13.30640   -1.18999
      H1     6.50593  -12.74239   -0.39031
       H     7.82639  -12.36964    2.50264
       O     8.49189  -12.67439    3.17501
      H1     9.30730  -12.65086    2.65765
       H    -0.38670  -10.34902    7.55777
       O    -0.83923  -10.39930    6.71708
      H1    -0.27790  -10.96021    6.14098
       H     5.33438  -11.78889    5.70276
       O     4.59325  -12.15499    6.18551
      H1     4.95817  -12.20457    7.12274
       H     2.34115  -12.01879   -1.39362
       O     2.65058  -12.42084   -0.56532
      H1     3.02683  -11.69005   -0.08818
       H    -0.91349  -14.81375    0.40284
       O    -1.45431  -15.54708    0.01544
      H1    -0.82324  -16.01766   -0.57730
       H    -1.54912  -11.01395    1.91956
       O    -0.74950  -11.38255    2.31651
      H1    -0.76500  -11.57345    3.32337
       H     0.13568  -14.73050    7.96649
       O     0.82633  -14.56511    7.32047
      H1     0.51280  -13.93039    6.70134
       H     3.07343  -15.40474   -1.71496
       O     4.04999  -15.35936   -1.77706
      H1     4.22067  -14.49527   -1.42879
       H     0.99612   -7.68229    6.15407
       O     1.39463   -8.32322    5.53902
      H1     1.82784   -9.00363    6.12676
       H    -0.15940  -12.89253    1.48567
       O     0.32787  -13.72574    1.26893
      H1     0.92643  -13.53131    0.59240
       H     3.36688  -10.69283    6.83227
       O     2.55017  -10.24027    7.06123
      H1     2.87888   -9.69601    7.78790
       H     4.55788  -10.59319    2.94064
       O     5.28358   -9.94790    3.08984
      H1     5.96955  -10.34110    3.68313
       H     1.15601   -9.04590    3.95196
       O     1.20844   -9.58723    3.09776
      H1     0.30008   -9.78582    2.79387
       H     3.61572  -13.53736    4.30092
       O     2.91946  -13.44832    3.68853
      H1     2.70913  -14.30670    3.28227

