72
frame 11 | Written by MDAnalysis XYZWriter (release 2.4.3)
       H   -14.34478  -13.40602   -1.30173
       O   -14.47498  -14.34962   -1.55142
      H1   -15.44027  -14.38137   -1.47947
       H   -17.04659  -12.30601    1.75527
       O   -17.01328  -11.46775    1.31323
      H1   -16.39594  -10.97299    1.90206
       H   -19.18926  -12.41757    8.26445
       O   -19.96790  -12.72945    7.81870
      H1   -19.84875  -13.57438    7.34181
       H   -17.37789  -14.21578   -3.62696
       O   -17.88865  -13.63206   -3.09813
      H1   -18.24237  -14.22449   -2.44990
       H   -16.89814  -15.69466    4.62699
       O   -17.50874  -14.96606    4.43555
      H1   -16.98506  -14.19941    4.71219
       H   -17.53963  -18.90926    0.58375
       O   -16.74057  -18.32632    0.43143
      H1   -16.63595  -18.02277    1.30429
       H   -18.34513  -10.25200    0.97644
       O   -18.95889   -9.56290    0.58077
      H1   -19.45086  -10.14722   -0.09378
       H   -15.49607  -17.98512    3.93220
       O   -15.21813  -17.99615    3.02365
      H1   -15.12315  -18.93436    2.77279
       H   -20.27008  -15.75939    6.04720
       O   -19.60038  -15.13035    6.36631
      H1   -19.01098  -14.97895    5.67340
       H   -14.15315  -13.06002    1.62907
       O   -14.46337  -13.70214    2.24273
      H1   -13.69112  -14.02221    2.73051
       H   -17.68344  -11.88217    4.47229
       O   -18.60442  -11.86930    4.70545
      H1   -18.76282  -11.09028    5.25284
       H   -17.91927  -14.53058    2.55435
       O   -17.90512  -14.07993    1.71892
      H1   -18.80884  -13.89926    1.41914
       H   -16.21671   -9.15078   -2.45026
       O   -15.49357   -9.59861   -2.00296
      H1   -15.86284  -10.50251   -1.79571
       H   -18.91764  -10.20228    3.55945
       O   -19.20733   -9.34090    3.38999
      H1   -19.29070   -9.28592    2.40634
       H   -16.79760  -12.56726   -2.09718
       O   -16.09479  -12.27016   -1.48170
      H1   -16.50312  -12.08379   -0.64466
       H   -15.36786   -8.99187    2.43660
       O   -15.08110   -9.88889    2.62004
      H1   -14.11803   -9.80964    2.78562
       H   -17.49577  -15.11326    0.20460
       O   -17.10390  -15.64058   -0.53782
      H1   -16.96639  -16.51422   -0.15920
       H   -15.21280  -12.42317    3.49688
       O   -15.69182  -12.60056    4.29846
      H1   -15.44907  -11.82226    4.81437
       H   -14.63458  -17.07963   -1.17950
       O   -14.91321  -17.41304   -2.02915
      H1   -15.15552  -18.31357   -1.85397
       H   -18.24776  -17.63984   -1.51622
       O   -18.85730  -18.08060   -2.07235
      H1   -18.38359  -18.42375   -2.81025
       H   -17.27568  -18.23704    5.41956
       O   -16.59429  -17.54910    5.21232
      H1   -15.95882  -17.66253    5.89482
       H   -14.66545  -13.82072    5.17637
       O   -13.99175  -14.46873    5.45541
      H1   -14.41866  -14.88080    6.27029
       H   -13.75473  -16.79353    3.21905
       O   -13.06864  -16.26056    3.53564
      H1   -13.33692  -15.85082    4.36115
       H   -13.89452  -15.47628   -0.10414
       O   -13.58632  -16.29099    0.34895
      H1   -13.55023  -15.91011    1.21010

