72
frame 10 | Written by MDAnalysis XYZWriter (release 2.4.3)
       H   -18.67748    0.27856   -4.38861
       O   -18.37447    1.20081   -4.65242
      H1   -18.03846    1.03054   -5.53830
       H   -19.61954    4.83303   -6.38889
       O   -19.13548    4.30221   -5.74017
      H1   -19.02993    3.39961   -6.11880
       H   -12.42898    6.17175   -4.42861
       O   -11.54648    6.21144   -4.01237
      H1   -11.78104    5.92081   -3.17857
       H   -11.99148    2.61696   -4.98882
       O   -12.01496    2.17957   -5.82970
      H1   -11.30136    1.60125   -5.80740
       H   -15.25778    4.86431   -2.21518
       O   -14.61253    5.11295   -1.55737
      H1   -14.47400    6.03932   -1.70725
       H   -16.22276   -3.20697   -5.90542
       O   -16.69559   -2.88259   -6.65030
      H1   -16.12912   -2.10899   -6.88923
       H   -16.25649    1.94875   -4.19731
       O   -15.39796    2.21214   -4.49013
      H1   -15.66019    2.40780   -5.39023
       H   -13.79466    5.69088   -7.45389
       O   -13.84054    5.43750   -8.37295
      H1   -12.95262    5.52342   -8.74296
       H   -13.04185    2.41755   -7.23012
       O   -13.59663    2.54488   -8.04634
      H1   -13.96787    3.44754   -7.94912
       H   -13.15914   -0.51685   -3.86706
       O   -14.00592   -0.23770   -4.20765
      H1   -13.96322    0.69594   -4.33770
       H   -14.98598    3.24555    1.06573
       O   -15.08815    4.19881    0.85862
      H1   -14.80652    4.31361   -0.06526
       H   -16.62171    1.73105   -7.79926
       O   -16.58396    1.47312   -6.83534
      H1   -16.04910    0.64093   -6.84017
       H   -10.10081    1.24260   -2.28908
       O   -10.74599    1.46188   -3.00698
      H1   -11.34497    2.16332   -2.71539
       H   -17.30866    5.63806   -3.29039
       O   -16.69224    4.96968   -3.42442
      H1   -16.55505    4.89631   -4.43594
       H   -14.20363   -0.54726   -7.42747
       O   -14.81795   -0.79288   -6.73308
      H1   -14.41582   -0.70539   -5.86205
       H   -16.84662   -2.49623   -2.57153
       O   -17.25826   -1.96684   -1.95362
      H1   -16.53440   -1.42491   -1.69748
       H   -19.56183   -1.52901   -3.84875
       O   -19.42085   -0.83645   -3.15420
      H1   -18.53588   -1.06995   -2.76893
       H   -13.62481    3.63825   -3.74472
       O   -12.78270    3.71382   -3.22759
      H1   -13.08927    4.09591   -2.39055
       H   -15.36975    0.38579   -2.51464
       O   -15.79049    0.43425   -1.62869
      H1   -16.34899    1.23317   -1.55395
       H   -16.29677    5.67980   -6.37124
       O   -16.35957    4.74612   -6.23801
      H1   -17.32669    4.61196   -6.28896
       H   -11.30196   -0.10224   -3.20149
       O   -11.68927   -0.99897   -3.21731
      H1   -11.78685   -1.32658   -2.33867
       H   -19.07207    2.73784   -1.05316
       O   -19.62417    3.30908   -0.42656
      H1   -19.34385    2.98676    0.45977
       H   -17.37592    3.15220   -2.37721
       O   -17.77320    2.24944   -2.25614
      H1   -17.94910    1.89943   -3.13540
       H   -13.40321    6.97921   -6.19341
       O   -13.61981    6.20656   -5.66412
      H1   -14.42422    6.60142   -5.25125

