72
frame 10 | Written by MDAnalysis XYZWriter (release 2.4.3)
       H    18.20411   18.65221  -17.08773
       O    18.95890   18.20905  -17.43446
      H1    19.00969   18.44551  -18.35995
       H    16.95728   15.09942  -16.85497
       O    17.15706   15.05201  -15.88507
      H1    16.68538   14.24933  -15.64452
       H    18.16143   16.73644   -7.23953
       O    18.92242   17.25355   -6.84074
      H1    19.21500   16.78831   -6.03718
       H    19.60737   16.70965  -11.24786
       O    19.10769   17.13382  -10.52642
      H1    19.87784   17.14082   -9.90613
       H    13.34919   11.69299  -10.95822
       O    14.11381   12.04445  -11.44965
      H1    13.83542   12.92792  -11.65164
       H    15.66660   11.74521  -12.07246
       O    16.46256   11.44597  -12.56684
      H1    17.20285   11.61586  -11.97668
       H    16.35435   16.69320   -8.90709
       O    16.95821   16.10641   -8.41023
      H1    17.54718   15.68514   -9.08059
       H    16.61958   16.20303  -14.27109
       O    16.35635   16.96548  -13.80126
      H1    15.39281   17.22489  -13.90175
       H    18.66518   14.75229  -14.89716
       O    19.44831   14.30922  -14.49801
      H1    19.06010   13.48788  -14.21384
       H    12.68046   18.03565   -8.81824
       O    12.56087   18.74222   -9.43566
      H1    12.31839   18.39748  -10.28869
       H    17.36294   17.11039  -10.80421
       O    16.38094   17.08743  -10.91137
      H1    16.20336   16.84809  -11.78909
       H    16.08570   12.14944  -15.50869
       O    15.74398   12.78010  -14.88702
      H1    15.89292   12.33068  -14.04877
       H    18.90604   20.11487   -5.84905
       O    18.08437   19.71425   -6.16733
      H1    18.30879   18.77810   -6.40642
       H    18.50246   11.06221  -10.40514
       O    18.59347   11.76022  -11.09099
      H1    19.39177   11.61072  -11.60691
       H    17.14237   18.70117  -14.55406
       O    17.29095   19.46108  -15.20245
      H1    18.23414   19.60851  -15.11071
       H    14.08551   18.88131   -9.21581
       O    15.07915   18.78451   -9.11850
      H1    15.39933   18.36229   -9.95671
       H    18.89490   13.52210  -10.50058
       O    18.91778   14.29018   -9.85932
      H1    19.51559   14.92499  -10.28452
       H    15.31214   13.98601   -6.54201
       O    14.87184   14.31091   -7.33883
      H1    15.51570   14.96469   -7.62371
       H    14.10091   19.92237   -5.77461
       O    14.06522   18.96270   -5.81145
      H1    14.55283   18.71182   -6.58330
       H    13.68209   18.72549  -15.01220
       O    13.84698   18.00768  -14.44594
      H1    13.65207   17.21204  -14.99565
       H    20.16788   11.24160  -13.93613
       O    19.27643   11.60285  -13.99480
      H1    18.88522   11.02573  -14.65944
       H    16.49211   18.19328   -3.89190
       O    17.29523   18.76118   -3.80521
      H1    17.26796   19.28840   -4.60556
       H    18.28656   12.67299   -7.32016
       O    18.55429   13.59035   -7.32615
      H1    18.79533   13.78869   -8.28995
       H    13.38649   15.68547   -7.72414
       O    12.87514   16.50829   -7.66020
      H1    12.10533   16.26911   -7.11295

