72
frame 10 | Written by MDAnalysis XYZWriter (release 2.4.3)
       H    -0.74874  -13.57671   -6.77058
       O    -1.53104  -14.10584   -6.87956
      H1    -2.09024  -14.05781   -6.09482
       H    -0.06571  -11.43943   -6.43441
       O     0.10834  -12.27409   -6.10986
      H1     0.06727  -12.27607   -5.16415
       H    -4.33588  -18.10626   -3.22901
       O    -3.63331  -18.50779   -3.81250
      H1    -3.45367  -17.84319   -4.47155
       H     3.65086  -15.26313   -3.59819
       O     3.54331  -14.91883   -4.54430
      H1     2.68804  -15.21847   -4.81394
       H    -2.64512  -15.24564   -4.87721
       O    -2.58634  -14.32610   -4.50589
      H1    -3.48426  -13.96939   -4.66195
       H    -1.33805  -13.29529   -3.17168
       O    -0.59304  -12.73656   -2.84341
      H1    -1.10150  -11.93729   -2.61577
       H     5.75333  -15.50955   -6.72738
       O     5.35943  -16.15707   -6.18768
      H1     5.04911  -15.67225   -5.42862
       H     1.08308  -15.10893   -3.18155
       O     1.00166  -14.90734   -2.21765
      H1     0.68344  -14.02129   -2.24839
       H    -4.51620  -12.31965   -4.60992
       O    -5.18126  -13.00945   -4.44060
      H1    -5.66915  -13.22435   -5.26044
       H     4.05666  -11.63629   -5.03496
       O     3.87467  -12.12675   -5.84431
      H1     3.90367  -13.06658   -5.63771
       H     2.98643  -11.11871   -7.12640
       O     2.89135  -10.70293   -8.01431
      H1     2.05602  -10.89242   -8.33488
       H    -0.06402  -19.53443   -3.04009
       O     0.36128  -19.00793   -2.32483
      H1    -0.37381  -18.48906   -1.94203
       H    -4.00955  -15.31758   -8.28036
       O    -4.48496  -15.68573   -7.51023
      H1    -5.06084  -14.99531   -7.30627
       H    -2.70422  -14.97647   -1.04623
       O    -3.24508  -14.89022   -1.83476
      H1    -2.69756  -14.93469   -2.65637
       H    -0.91349  -14.81375    0.40284
       O    -1.45431  -15.54708    0.01544
      H1    -0.82324  -16.01766   -0.57730
       H    -3.42708  -16.42380   -6.27618
       O    -2.84841  -16.62850   -5.49437
      H1    -2.03813  -17.01016   -5.81923
       H    -2.35083  -14.28168   -8.51115
       O    -2.76158  -14.43313   -9.35181
      H1    -3.28221  -13.56363   -9.53457
       H    -0.15996  -17.56500   -8.92414
       O    -0.90577  -17.73576   -8.37477
      H1    -1.19407  -18.61783   -8.56777
       H     3.07343  -15.40474   -1.71496
       O     4.04999  -15.35936   -1.77706
      H1     4.22067  -14.49527   -1.42879
       H    -2.66872  -18.12787   -2.49508
       O    -2.25668  -17.76777   -1.65533
      H1    -2.79230  -16.94931   -1.53363
       H     1.89376  -18.01221   -3.14708
       O     2.72702  -17.63562   -3.41972
      H1     2.92314  -18.15380   -4.18406
       H    -0.00657  -18.56871   -5.50218
       O    -0.15230  -17.63368   -5.81746
      H1    -0.43675  -17.69454   -6.74438
       H     0.71526  -16.23277   -5.08893
       O     0.81646  -15.25040   -4.93582
      H1     0.00434  -14.83228   -5.26092
       H     2.88399  -17.75344   -6.70446
       O     3.64008  -18.20631   -6.31639
      H1     4.29411  -17.46015   -6.16048

