72
frame 10 | Written by MDAnalysis XYZWriter (release 2.4.3)
       H    15.36355  -11.92258   12.60677
       O    15.40353  -12.52378   13.43796
      H1    14.97833  -12.02838   14.12761
       H    13.20089  -14.81031   11.91222
       O    12.54410  -14.89637   11.16804
      H1    11.94813  -15.51952   11.62216
       H     8.58227  -13.32124   12.55350
       O     9.31802  -13.86475   12.93512
      H1     8.93244  -14.32676   13.70155
       H    13.50191  -18.54489   11.37444
       O    13.53864  -19.08747   12.20555
      H1    13.21624  -19.99738   11.98289
       H    11.80512  -14.71634   14.27044
       O    11.41328  -14.56924   15.11605
      H1    10.67768  -15.19560   15.33485
       H    11.45192  -12.79438   14.66982
       O    11.40528  -11.81485   14.63693
      H1    11.51335  -11.56742   13.69049
       H    17.39152  -11.87776   11.52051
       O    16.69732  -11.92685   10.85670
      H1    17.03872  -11.69317   10.00103
       H    11.19866  -17.78458   13.18690
       O    11.61616  -18.27913   13.93118
      H1    12.31947  -18.77992   13.49074
       H    13.05955  -10.93623   15.15302
       O    14.00132  -10.73081   15.22678
      H1    14.25288  -10.23281   15.99931
       H    14.73100  -11.86829   10.29486
       O    14.11547  -12.17570    9.61187
      H1    13.18841  -12.10324    9.97764
       H     8.12687  -16.02138   11.18917
       O     8.89763  -15.50333   10.84530
      H1     9.05514  -14.83038   11.56341
       H    10.94887  -11.71564   11.54091
       O    11.18270  -10.91191   12.09933
      H1    12.09025  -10.59784   11.77658
       H    11.56019  -17.16501   10.73560
       O    10.97819  -17.05812   11.46685
      H1    10.17904  -16.63754   11.05700
       H    16.77872  -18.71743   12.85523
       O    16.11142  -19.40510   12.92836
      H1    15.29625  -18.98183   12.55024
       H    14.40632  -13.56157    8.02921
       O    14.65396  -13.84851    7.10312
      H1    14.48253  -14.76997    6.97298
       H    14.62763  -15.67251   13.77287
       O    13.98489  -15.03662   13.43492
      H1    14.34578  -14.20637   13.62501
       H    15.13365  -19.08754   10.15155
       O    15.88747  -19.65316   10.21169
      H1    16.08031  -19.64500   11.14123
       H    12.33414  -15.42979    6.83980
       O    11.61579  -15.30907    7.48648
      H1    11.42186  -14.37179    7.51727
       H    13.53169   -9.80584   12.76955
       O    13.74446  -10.20424   11.91872
      H1    13.69055   -9.44461   11.30511
       H    13.73043  -16.25277   10.86011
       O    13.95518  -17.00952   10.32668
      H1    13.58746  -16.79098    9.42611
       H    11.20812  -12.68794    9.06644
       O    11.49903  -12.56394   10.03141
      H1    11.72892  -13.48186   10.30894
       H    16.68450  -13.54095   12.80833
       O    17.22534  -14.35284   12.53418
      H1    16.85759  -14.72820   11.75247
       H    16.97958  -15.75226   15.62437
       O    16.39510  -16.36532   15.21152
      H1    16.05902  -16.95402   15.93095
       H    16.05401  -14.65723    9.50955
       O    16.56992  -15.25866   10.03319
      H1    15.99700  -16.06388    9.87254

