72
frame 11 | Written by MDAnalysis XYZWriter (release 2.4.3)
       H     3.30617    9.20539   -3.44933
       O     3.06587    9.49052   -4.34995
      H1     3.10804    8.64422   -4.88536
       H     7.13949   10.35454   -2.32348
       O     6.34915    9.80681   -2.13788
      H1     5.77141    9.80954   -2.92242
       H    -0.00715    8.70278   -6.37378
       O    -0.18507    8.14937   -7.12846
      H1    -0.49180    8.89799   -7.68570
       H     0.56654    5.11028   -7.96600
       O     1.43025    5.05091   -8.32666
      H1     1.18856    5.19842   -9.23348
       H     3.83192    6.15846   -5.17437
       O     4.11898    7.03840   -5.46532
      H1     3.99598    7.05177   -6.39845
       H     4.64623    5.69447   -2.43504
       O     4.43026    4.79712   -2.19117
      H1     4.46385    4.87564   -1.22232
       H     5.04540    4.45491   -8.57329
       O     4.37696    5.11772   -8.86054
      H1     3.60231    4.80088   -8.33830
       H     2.29414    7.01899   -8.36574
       O     2.20711    7.88880   -8.74964
      H1     1.37591    8.09711   -8.24864
       H     2.25507    4.49764   -2.35770
       O     1.56815    3.76754   -2.37249
      H1     1.59598    3.43998   -3.28057
       H     2.21352   10.81845   -5.51362
       O     1.37499   11.19940   -5.84111
      H1     0.70929   10.63855   -5.35762
       H     4.36160    8.19386   -0.83030
       O     3.90420    8.51097   -1.60537
      H1     3.25539    7.84589   -1.87723
       H     4.86481   11.89753   -3.61238
       O     5.14227   11.23771   -4.24114
      H1     4.28552   10.77738   -4.44512
       H     5.28461    1.74358   -3.23617
       O     5.43889    2.53693   -3.75400
      H1     5.19568    3.32503   -3.17596
       H     6.13372    2.69864   -7.65739
       O     6.54298    3.47108   -8.14074
      H1     6.98429    4.10105   -7.57003
       H     8.12679    6.21195   -6.37520
       O     8.53114    5.61954   -7.02225
      H1     9.50948    5.69644   -6.94163
       H     7.08820    9.76853   -6.87315
       O     7.23530    9.98593   -5.96302
      H1     6.45754   10.48101   -5.61058
       H     4.25991    3.93380   -4.94720
       O     3.42514    4.28898   -5.26139
      H1     2.92085    3.49384   -5.33393
       H     1.45860    6.49783   -3.06122
       O     1.93367    6.79654   -2.24742
      H1     1.33169    6.99376   -1.53297
       H     6.98854    9.87571   -9.37395
       O     7.17176    9.27304   -8.67319
      H1     6.29121    8.82492   -8.56119
       H     6.04692    7.14469   -5.62334
       O     6.96961    7.25096   -5.41226
      H1     7.21357    8.10961   -5.68488
       H     6.13028    7.84524   -2.43448
       O     6.09706    6.95922   -2.83158
      H1     6.17720    7.16135   -3.76495
       H     4.74178    7.13832   -8.60176
       O     4.94825    7.91105   -8.08420
      H1     4.12881    8.45223   -8.12303
       H    -0.52651    5.96371   -3.46284
       O    -0.21463    6.42158   -4.28197
      H1     0.03797    7.32254   -4.11050
       H     1.13803    9.32064   -4.46667
       O     0.22882    9.07176   -4.53945
      H1    -0.20223    9.71516   -3.95583

