72
frame 10 | Written by MDAnalysis XYZWriter (release 2.4.3)
       H    18.77312  -13.44693   -6.51884
       O    19.38520  -13.68136   -7.25400
      H1    19.02374  -13.29126   -8.07315
       H    15.68796  -15.07162    0.19103
       O    15.60444  -14.18368   -0.26276
      H1    15.14685  -14.46661   -1.08486
       H    18.86247   -9.44072   -8.08025
       O    17.92572   -9.63599   -8.10048
      H1    17.56733   -9.10937   -7.37602
       H    17.78516  -14.34865   -0.31126
       O    18.56517  -13.84496   -0.12827
      H1    18.38070  -13.37095    0.69905
       H    13.22276   -9.31077    0.13429
       O    13.39435   -8.96921   -0.75782
      H1    12.84352   -9.51628   -1.41428
       H    17.32740   -9.70927    0.37655
       O    17.26393   -9.28789    1.26479
      H1    16.37022   -9.19158    1.55660
       H    13.53212  -12.42855    1.94340
       O    13.88796  -12.13761    1.09484
      H1    14.55960  -12.76350    0.88367
       H    15.98107  -12.71296   -2.79664
       O    15.81921  -11.80545   -2.86576
      H1    16.32833  -11.68303   -3.67936
       H    13.16533  -12.58560   -0.96599
       O    12.70110  -13.00068   -1.73651
      H1    13.41256  -13.46270   -2.18945
       H    14.88612  -11.60231   -9.15831
       O    15.17049  -12.13954   -8.45210
      H1    16.04522  -12.45215   -8.55731
       H    14.89418   -8.64237   -1.47614
       O    15.73711   -8.48395   -1.99086
      H1    16.04510   -7.69910   -1.51129
       H    13.51164  -10.83442   -5.78256
       O    13.72395  -11.74941   -6.04181
      H1    14.38111  -11.73117   -6.73240
       H    15.18169  -15.31239   -2.93967
       O    14.43056  -14.77475   -2.72361
      H1    13.81030  -15.35064   -2.25374
       H    12.67925   -9.80782   -4.29336
       O    12.92117   -9.27222   -5.09374
      H1    13.84237   -8.97342   -4.85548
       H    15.52324   -9.54638   -8.06010
       O    15.15515   -8.83325   -7.48060
      H1    15.57441   -8.93495   -6.62636
       H    13.84017  -14.60131   -7.12402
       O    14.25692  -14.56044   -8.00619
      H1    14.50751  -13.60202   -8.19519
       H    15.77622   -8.11583   -3.81906
       O    15.66296   -8.13637   -4.76810
      H1    15.18155   -7.29835   -5.01720
       H    13.37725  -13.45052   -5.58855
       O    13.16626  -14.37474   -5.58812
      H1    13.73265  -14.66311   -4.82044
       H    17.85407  -12.21074   -5.09825
       O    17.85277  -13.16107   -4.97449
      H1    18.62982  -13.47609   -4.50399
       H    17.97081  -11.29624   -8.49373
       O    18.09401  -12.13386   -9.02834
      H1    18.67281  -11.85268   -9.77527
       H    16.95011   -9.81580   -4.72589
       O    17.65105  -10.47505   -4.95075
      H1    18.45060  -10.03139   -4.51152
       H    16.55068  -16.77967   -4.50390
       O    16.58235  -16.55826   -3.59568
      H1    16.11203  -17.31676   -3.19159
       H    12.39451  -11.36809   -2.61305
       O    11.96908  -10.52822   -2.86088
      H1    11.11516  -10.68948   -3.28056
       H    17.23951  -10.71166   -1.78210
       O    17.92877  -10.76538   -1.10949
      H1    18.09891  -11.67726   -1.00154

