72
frame 10 | Written by MDAnalysis XYZWriter (release 2.4.3)
       H    -2.56933   16.90715   -1.30213
       O    -2.90654   17.09071   -0.38394
      H1    -2.50816   17.88493    0.00994
       H    -9.27632   19.51848    1.13967
       O    -9.93614   18.97068    0.68557
      H1   -10.49756   18.59861    1.39919
       H    -5.06370   19.13767    4.69940
       O    -4.85876   18.33345    4.20049
      H1    -5.64408   18.15995    3.61328
       H    -1.80526   18.45192   -3.92706
       O    -0.86323   18.30681   -3.88120
      H1    -0.61579   18.17691   -4.78939
       H    -8.71842   13.03133   -0.46504
       O    -8.11480   12.35967   -0.20436
      H1    -7.27481   12.87360   -0.13982
       H    -2.58233   19.85620    3.69775
       O    -2.37506   18.96316    3.37809
      H1    -3.19068   18.50606    3.40193
       H    -2.02216   15.41419   -3.55814
       O    -1.90492   15.91988   -2.76351
      H1    -1.39122   16.70707   -2.98319
       H    -7.20096   19.50445   -2.76251
       O    -8.03834   19.31831   -3.19807
      H1    -8.67687   19.78772   -2.68515
       H    -8.51576   18.09074    4.74072
       O    -7.90529   18.77922    5.17236
      H1    -7.44941   18.41234    5.94202
       H   -11.48447   16.86924    1.93145
       O   -11.44263   17.58620    2.59214
      H1   -10.88245   17.21366    3.25383
       H    -7.84246   16.06822   -3.70756
       O    -7.16060   15.72810   -3.07534
      H1    -7.09613   14.80166   -3.28319
       H    -3.79317   15.72318   -5.43006
       O    -4.66434   15.94611   -5.14229
      H1    -4.62271   15.95600   -4.17764
       H    -9.58086   14.34559   -2.06831
       O    -9.68574   14.61219   -1.15664
      H1   -10.44634   15.22727   -1.23349
       H    -8.54668   17.03123   -5.47056
       O    -8.99193   16.92368   -4.59479
      H1    -8.71050   17.76790   -4.14471
       H    -5.42865   14.12269    2.19774
       O    -4.86352   14.77680    1.77300
      H1    -5.31783   15.60047    1.70292
       H    -1.41853   15.06514    1.43664
       O    -0.96047   15.63226    0.79014
      H1    -1.69501   16.12666    0.34198
       H    -5.83849   18.62884   -1.11427
       O    -6.36792   18.86765   -0.32287
      H1    -5.67953   19.46142    0.02453
       H    -0.67682   19.52485    0.68135
       O    -1.58891   19.37172    0.85346
      H1    -1.71932   19.33828    1.80330
       H    -5.26398   13.39708   -1.23943
       O    -5.42565   13.23072   -0.27434
      H1    -5.05005   13.95143    0.17371
       H    -7.12881   16.72566    1.67282
       O    -6.20400   16.99933    1.84748
      H1    -5.95082   17.55306    1.04110
       H    -4.43298   17.26241   -1.62448
       O    -4.97555   17.46567   -2.38542
      H1    -5.70598   16.88350   -2.56161
       H    -3.76583   19.23471   -4.68079
       O    -3.40434   18.49433   -5.20951
      H1    -3.96292   17.74661   -4.96709
       H    -8.53344   16.00046    0.04308
       O    -8.77895   16.52267    0.78340
      H1    -9.15133   17.37242    0.57300
       H   -11.44568   13.91491    1.35287
       O   -11.15780   14.86597    1.57504
      H1   -10.29120   14.92722    1.11712

