75
frame 0 | Written by MDAnalysis XYZWriter (release 2.4.3)
       H     7.79161    0.21368   -0.46204
       O     7.58161   -0.56905    0.06593
      H1     8.41867   -0.81354    0.52556
       H     6.08049   -1.69219    2.84546
       O     5.96132   -1.98826    1.90086
      H1     6.51162   -1.40610    1.36121
       H     5.70517   -6.18402    3.23676
       O     6.17187   -5.39115    3.65547
      H1     5.44239   -4.81607    4.07645
       H     5.67463   -3.22529    0.62986
       O     5.59956   -3.90345   -0.01631
      H1     6.27204   -3.72662   -0.66739
       H     2.83155    2.82349    1.35378
       O     3.03376    2.95424    0.40927
      H1     3.66970    2.31463    0.12735
       H     7.13394   -5.36359    2.25314
       O     7.55519   -5.39625    1.35732
      H1     6.89005   -5.13954    0.73120
       H     3.75955   -2.22800    5.00858
       O     3.17357   -1.53909    5.27817
      H1     3.43617   -0.67120    4.88289
       H     3.00646   -2.21774   -0.83236
       O     2.63350   -2.81514   -1.51408
      H1     3.18627   -2.77763   -2.25285
       H    -0.30348   -2.06568   -1.15656
       O    -0.87687   -2.54056   -1.81620
      H1    -0.29663   -3.13633   -2.35090
       H     4.19072   -4.45321    5.86669
       O     4.29333   -4.06679    4.95903
      H1     3.58704   -4.47067    4.39056
       H     1.89618   -4.57379    2.41628
       O     1.90146   -4.91027    3.28302
      H1     1.04768   -4.61842    3.66723
       H     4.78406    1.16932   -3.80987
       O     4.71517    0.34141   -3.25056
      H1     5.15136    0.54026   -2.42527
       H     1.00601    3.90030   -1.93575
       O     1.79165    3.34666   -2.03154
      H1     2.15390    3.28933   -1.14283
       H     1.48096   -1.20245    4.64873
       O     0.61725   -0.79781    4.87065
      H1     0.17528   -0.72239    3.99996
       H     6.10861    2.37466    2.37039
       O     5.85884    1.65922    2.95078
      H1     6.34198    1.71806    3.76876
       H     3.57066   -2.08002    6.95906
       O     3.85542   -2.54059    7.72047
      H1     3.80752   -2.02555    8.53055
       H     7.30156   -2.18814    4.65283
       O     6.80882   -1.34447    4.57165
      H1     7.41410   -0.74216    4.09635
       H     5.01509   -6.42344   -0.17592
       O     4.25361   -6.89467    0.18107
      H1     3.43766   -6.35360    0.01912
       H     1.99139   -4.46231   -0.17207
       O     2.48638   -4.77679    0.53776
      H1     3.09914   -4.03081    0.62601
       H    -1.47406   -1.36134    2.35189
       O    -0.54182   -0.98338    2.50278
      H1    -0.60089   -0.11270    2.01048
       H    -0.69007    1.70566    0.27397
       O    -0.56027    2.09099    1.17132
      H1    -1.40265    2.01398    1.69032
       H     1.15749    2.31824    2.65579
       O     2.02961    2.62533    3.00833
      H1     2.41886    1.86063    3.44143
       H     3.82931    1.14316    5.32614
       O     3.68144    0.89070    4.33011
      H1     4.51537    1.13967    3.84349
       H     5.51982    2.24088   -0.31997
       O     5.18335    1.34789   -0.48742
      H1     5.45317    0.83053    0.29228
       H     4.29729   -1.47348    1.91736
       O     3.38261   -1.28802    1.56997
      H1     2.83673   -1.16826    2.37573

