75
frame 1 | Written by MDAnalysis XYZWriter (release 2.4.3)
       H    10.72957   -1.47406   -0.34249
       O    11.27240   -1.23389   -1.08486
      H1    11.74608   -2.02030   -1.35236
       H    14.97934    4.80886    2.08847
       O    15.20267    4.33601    1.25288
      H1    15.24888    3.40532    1.52107
       H    18.50499    0.17437    2.60344
       O    18.77482    0.85353    1.96192
      H1    19.43314    1.39420    2.40258
       H    14.74672    3.20682   -3.62161
       O    15.23983    3.90107   -3.20668
      H1    15.51419    4.37896   -3.99708
       H    12.08266    2.86500   -1.04001
       O    12.07428    3.83152   -1.00593
      H1    13.00245    4.20208   -1.12210
       H    15.64416    0.94575    2.24855
       O    16.10281    1.61223    1.79599
      H1    17.05178    1.33700    1.89303
       H    15.79369   -0.65872   -2.63821
       O    16.45872   -1.00233   -2.01119
      H1    16.94814   -0.22043   -1.70412
       H    15.47852    1.36234    0.40154
       O    15.09397    1.52066   -0.50103
      H1    15.64479    2.21862   -0.90957
       H    10.68974    4.92168    1.52090
       O    10.34188    4.05514    1.22767
      H1    10.82630    3.80965    0.45964
       H    14.78350   -3.92783    0.85752
       O    14.72524   -2.92158    0.90977
      H1    15.13346   -2.68761    0.08463
       H    13.39173    1.02341   -0.91035
       O    12.45904    1.14977   -1.22736
      H1    12.07207    0.28394   -1.09640
       H    11.42511    1.09161    2.30924
       O    10.58103    1.40714    1.98238
      H1    10.59328    2.39599    2.01762
       H    12.28754   -1.50403    2.98841
       O    12.41594   -0.54476    3.02416
      H1    12.22121   -0.14903    3.89936
       H    19.16397    1.15792   -0.80593
       O    18.43838    1.15718   -1.40809
      H1    18.42789    2.04145   -1.82446
       H    12.49673    2.87970   -4.17135
       O    12.81013    1.93651   -3.93574
      H1    12.55859    1.59786   -3.04969
       H    16.76969   -2.93119   -4.42910
       O    17.52132   -2.42544   -4.22925
      H1    17.11965   -1.70249   -3.70241
       H    17.22605    3.44983   -3.18901
       O    18.12264    3.50327   -2.82459
      H1    18.74512    2.88572   -3.16721
       H    15.42876   -1.30576    2.28862
       O    15.03598   -0.60282    2.85569
      H1    14.10751   -0.82676    2.85364
       H    17.91213   -1.13473    1.56826
       O    17.60709   -1.78962    2.22453
      H1    18.36556   -2.33108    2.47917
       H    14.05725   -2.96309   -3.11057
       O    14.60834   -2.97198   -3.91208
      H1    13.95310   -3.01749   -4.61298
       H    17.58199    4.37513    0.74348
       O    18.12249    4.70664    1.48188
      H1    17.45125    4.72777    2.18108
       H    19.00349   -1.92980   -2.83994
       O    19.61819   -1.34506   -2.41926
      H1    19.13301   -0.60391   -2.14218
       H    14.07961    0.52302   -4.04521
       O    14.77861   -0.15162   -4.10815
      H1    14.42766   -1.07274   -4.12065
       H    14.87995    5.12514   -1.58622
       O    14.34094    5.59562   -0.96314
      H1    14.58627    5.19092   -0.14350
       H     9.89677    1.62867   -1.31311
       O     9.39442    1.38581   -0.51394
      H1     9.92368    1.69060    0.19138

