75
frame 2 | Written by MDAnalysis XYZWriter (release 2.4.3)
       H    -5.58477   10.01715  -13.55861
       O    -5.53416   10.65988  -12.88387
      H1    -6.24669   10.53914  -12.27731
       H    -4.86443   13.38831  -11.06236
       O    -5.44261   13.27378  -11.81515
      H1    -5.29638   12.37209  -12.12922
       H    -5.91793   14.02785  -15.31567
       O    -5.33893   13.93044  -16.04717
      H1    -5.15575   14.87334  -16.30560
       H    -5.82173   10.05231   -7.59236
       O    -6.30980    9.57613   -6.91802
      H1    -6.89358    9.01138   -7.41069
       H    -7.78562   11.55144  -16.50315
       O    -8.22480   10.78928  -16.06576
      H1    -8.53614   10.28919  -16.78656
       H    -1.17351   12.24147  -13.81531
       O    -0.83457   12.78606  -13.10777
      H1    -1.32274   13.63566  -13.22984
       H    -7.29362   13.74448  -11.37985
       O    -7.99069   13.80473  -10.65162
      H1    -8.91628   14.03419  -10.97682
       H    -3.88977    9.68264   -9.31456
       O    -4.23160   10.40566   -8.83472
      H1    -3.52184   11.09435   -8.68404
       H    -4.57741    8.54768  -14.75053
       O    -4.96742    9.09946  -15.44784
      H1    -5.86443    8.73725  -15.49213
       H    -6.12916   16.57555  -12.70609
       O    -6.98499   16.34711  -13.17327
      H1    -7.05901   16.65093  -14.10000
       H     0.11011   11.75103  -10.27367
       O    -0.75503   11.86155  -10.66194
      H1    -0.52991   12.31013  -11.49470
       H    -8.33323   16.09753   -8.71976
       O    -8.28196   16.44646   -9.62418
      H1    -8.27889   15.67195  -10.15992
       H    -9.10808   15.29907  -15.83159
       O    -9.42178   14.41134  -16.05433
      H1    -8.84583   13.82302  -15.46058
       H    -2.36853    7.39003  -10.34336
       O    -3.03446    8.13460  -10.35111
      H1    -2.53209    8.85104  -10.72104
       H    -3.20310   15.70467  -16.10662
       O    -2.41564   15.53369  -15.60096
      H1    -2.69984   15.42350  -14.67045
       H    -6.99213   12.50863  -13.85525
       O    -7.48929   13.33311  -14.01725
      H1    -7.06661   14.04839  -13.58068
       H    -7.03119   13.20406   -8.59325
       O    -6.97826   13.07874   -7.63228
      H1    -7.58492   12.27206   -7.49007
       H    -3.77440   15.26403   -7.71862
       O    -3.97963   15.13263   -8.66718
      H1    -3.33398   15.73283   -9.13342
       H    -2.00789   16.00205  -12.75565
       O    -2.95211   15.94488  -13.00933
      H1    -3.55568   15.92860  -12.24383
       H    -0.98903    9.86340  -13.43877
       O    -1.46218    9.69015  -12.53073
      H1    -1.25567   10.49417  -12.08634
       H    -9.37101   11.09942  -14.67970
       O   -10.12998   11.30960  -14.10911
      H1    -9.75291   11.38109  -13.22243
       H    -2.02770   12.87327   -9.41113
       O    -2.80514   12.67674   -8.89803
      H1    -3.27773   13.49081   -8.80445
       H    -4.95566   16.01687  -10.66902
       O    -5.02718   16.71128  -11.34205
      H1    -5.13241   17.46215  -10.75252
       H    -8.27844   12.03685  -11.13476
       O    -7.99039   11.16685  -11.43527
      H1    -8.19146   10.58691  -10.65978
       H    -2.37637    9.32579  -17.16196
       O    -2.56923    9.36627  -16.21223
      H1    -3.49012    9.52926  -16.11695

