75
frame 1 | Written by MDAnalysis XYZWriter (release 2.4.3)
       H    -1.04333    5.42671    0.43744
       O    -1.45442    4.55855    0.20139
      H1    -1.24241    4.15627    1.04858
       H     1.05207    4.57245    3.17103
       O     0.61963    5.40183    3.41471
      H1     0.99724    6.19804    3.03178
       H     1.91645    3.43247    1.29848
       O     2.41643    3.70420    0.48795
      H1     2.78444    2.88967    0.21098
       H    -5.79188    5.14144    2.00488
       O    -6.02125    5.08821    1.07729
      H1    -6.96041    4.95981    1.02948
       H    -3.47299    7.65668    0.64857
       O    -3.79048    6.86288    1.12643
      H1    -3.14577    6.57853    1.77655
       H    -3.40407    0.86381    4.11705
       O    -3.14235    1.74657    3.82714
      H1    -3.54964    1.87325    2.99072
       H    -4.58688    2.94154    0.51363
       O    -4.60741    2.30220    1.23470
      H1    -4.88831    1.57136    0.72452
       H    -1.32057    0.16120   -0.25372
       O    -0.52618    0.46465    0.17417
      H1     0.08059    0.81030   -0.52572
       H    -7.67959    2.89232    2.53092
       O    -7.35065    2.21806    1.94050
      H1    -6.40485    2.33007    1.90329
       H     0.84438   -1.31569    4.34992
       O    -0.03121   -0.90206    4.38208
      H1    -0.54334   -1.24265    3.64529
       H    -1.51786    5.67759    3.40976
       O    -2.42827    5.77356    3.20591
      H1    -2.86517    5.31274    4.00577
       H    -4.79223    0.20034   -0.89312
       O    -5.25825   -0.00134   -0.08569
      H1    -6.07978   -0.43252   -0.46218
       H    -1.20605   -1.71827    5.55260
       O    -1.92808   -1.62184    6.23794
      H1    -1.59029   -0.98598    6.88596
       H    -2.71235    1.74963    7.37699
       O    -3.58645    1.90144    7.00436
      H1    -3.45524    2.63919    6.35244
       H    -4.57876   -1.43181    5.22148
       O    -3.83839   -1.02977    4.70379
      H1    -3.05137   -1.23520    5.26872
       H    -2.36908   -1.35432    2.00911
       O    -1.39462   -1.28617    1.91751
      H1    -1.15398   -0.56976    1.38386
       H    -1.09746    2.00444    1.44980
       O    -1.24648    2.59522    2.17048
      H1    -1.78391    2.09766    2.78138
       H    -4.79579    4.69210   -0.02225
       O    -4.06603    4.34179   -0.57286
      H1    -3.24339    4.62924   -0.09724
       H    -0.47738    1.72190    7.33310
       O    -0.12911    0.82612    7.09731
      H1    -0.01111    0.76533    6.16449
       H    -4.46839    4.28444    5.13977
       O    -3.55532    4.05045    5.16494
      H1    -3.41667    3.20526    4.68733
       H     0.61744    2.37324    2.66832
       O     1.44537    2.79217    2.90053
      H1     2.06326    2.10649    3.17864
       H    -4.46715   -1.57107    2.68141
       O    -4.18363   -1.74768    1.68234
      H1    -4.73263   -1.18560    1.09949
       H    -4.50435    6.32887    2.94927
       O    -5.29176    6.15220    3.53160
      H1    -5.36096    6.92454    4.14568
       H     1.86761   -1.25177    2.57159
       O     1.86316   -0.93588    1.63772
      H1     0.98055   -0.61591    1.46589
       H    -2.41883   -0.27129   -2.16806
       O    -2.76691    0.33208   -1.54156
      H1    -2.71951    1.27503   -1.88322

