75
frame 1 | Written by MDAnalysis XYZWriter (release 2.4.3)
       H     9.50885   15.77764    2.05539
       O     8.74397   16.38370    1.83546
      H1     7.98407   16.06778    2.35181
       H     8.43372   12.38902    8.87169
       O     9.18523   12.92556    8.58176
      H1     9.44929   12.56066    7.74384
       H     6.82693   11.79005    4.02441
       O     7.27590   11.30220    3.34420
      H1     6.63158   11.20938    2.63410
       H    13.42956   11.10468    8.26544
       O    12.54579   10.81777    8.60760
      H1    12.27748   11.59140    9.16627
       H    13.51533   15.57764    7.30038
       O    13.52034   14.87002    7.97416
      H1    14.50778   14.75443    8.13801
       H     9.85628    7.86248    4.78170
       O    10.26035    6.99019    4.71852
      H1    10.53716    6.95503    3.73503
       H    14.03399   16.29894    3.05495
       O    13.76849   15.49196    3.42747
      H1    13.50107   15.72075    4.35564
       H     9.73178   11.46349    1.32768
       O    10.32138   11.14723    0.63084
      H1    10.26004   11.80097   -0.07959
       H     9.49987   10.22582    5.44064
       O     9.08545    9.64550    4.78019
      H1     8.32587   10.17290    4.46033
       H     9.98415   14.21249    4.95451
       O    10.43586   13.36339    4.70201
      H1    11.41958   13.61472    4.88091
       H     9.31184   15.96391    8.42451
       O     8.60766   15.48641    7.94122
      H1     8.79070   14.53057    8.15363
       H    13.85771   13.71774    4.76936
       O    13.09897   13.43160    5.25314
      H1    13.40609   13.45508    6.15030
       H     8.81603   15.32090    6.28000
       O     8.96332   15.54174    5.34179
      H1     8.09664   15.62047    4.88399
       H     6.93361   11.45154   10.46773
       O     7.69024   11.04718   10.08762
      H1     8.41095   11.40849   10.60649
       H    16.16863   11.03781    7.84220
       O    15.28484   10.81236    7.68849
      H1    15.20930   10.77541    6.69092
       H    15.11623    9.57871    4.73134
       O    15.08771   10.53114    4.84104
      H1    15.58065   10.92837    4.06292
       H     4.66061   12.02469    5.98125
       O     4.78294   12.12891    6.90276
      H1     5.58059   11.61667    7.03433
       H    10.98884   11.25717    6.78050
       O    10.12527   11.49222    6.50733
      H1    10.22347   12.15664    5.75230
       H    10.95835   18.07640    6.92898
       O    10.85095   17.72004    6.00665
      H1    10.12691   17.10985    5.99007
       H     7.29183   10.27051    8.30067
       O     7.09404   10.23749    7.35646
      H1     7.78781    9.67840    6.97267
       H    11.13618   13.28430    9.73861
       O    11.49567   12.81546   10.44655
      H1    10.75075   12.60747   10.99457
       H    12.26687   15.33148    2.69338
       O    11.36881   15.28896    2.24055
      H1    11.29714   14.33621    2.17658
       H    12.85763   10.82517    3.11227
       O    12.85910   11.06470    2.17498
      H1    11.98239   10.92046    1.78789
       H    13.64538   13.26318    0.56637
       O    12.66655   13.21876    0.57684
      H1    12.48791   12.54359    1.22519
       H     9.47079   13.48481    3.04289
       O     8.92251   13.18226    2.32471
      H1     8.35698   12.55593    2.78838

