75
frame 1 | Written by MDAnalysis XYZWriter (release 2.4.3)
       H    15.65364    5.20430   18.00720
       O    15.40110    4.81617   17.19349
      H1    14.86725    5.44517   16.76629
       H    11.51689    3.89315   18.39401
       O    10.78351    4.47141   18.69121
      H1     9.96419    4.05899   18.50635
       H    10.99888    6.15654   17.76902
       O    10.71090    6.88778   17.20280
      H1    11.43082    7.54804   17.21785
       H    14.03985    3.71252   18.17696
       O    13.42221    2.98129   18.19108
      H1    13.56339    2.58451   17.33714
       H    10.05315    4.63983   14.30268
       O     9.60380    5.47959   14.29173
      H1     8.99957    5.25491   13.57130
       H     6.34214    4.69798   17.70538
       O     5.77345    5.33073   18.08722
      H1     5.42233    5.91051   17.43363
       H    11.05357   12.03503   15.94136
       O    11.30401   11.83674   16.82263
      H1    11.39401   12.67682   17.22643
       H     9.68766   11.19716   16.98162
       O     8.89443   10.78745   17.31005
      H1     8.93784    9.92633   16.85439
       H    11.89355    9.41780   13.46118
       O    11.91938    9.74573   12.56162
      H1    12.05810    8.89648   12.09204
       H    12.86300    6.71561   14.53034
       O    12.19401    6.67747   13.79561
      H1    11.34815    6.75389   14.25636
       H    10.02382    8.05324   15.34149
       O     9.67571    8.86938   15.05939
      H1     8.87566    8.73898   14.50178
       H    14.97284    8.27439   18.95126
       O    14.65102    7.40853   19.07036
      H1    15.48217    6.95330   19.30724
       H     5.62765    7.02075   15.41622
       O     6.05811    6.51764   14.67757
      H1     5.45646    5.98629   14.16152
       H     9.81738   10.69171   18.97528
       O    10.11037   10.37723   19.87798
      H1    10.72441   11.04493   20.19358
       H     8.30104    4.47676   15.38271
       O     7.39341    4.17597   15.58944
      H1     6.88193    4.91912   15.29420
       H    11.78066    6.71711   11.80764
       O    11.53519    7.09641   10.94322
      H1    10.66556    6.75794   10.73232
       H    13.03701    5.21591   13.16901
       O    13.50539    4.64934   12.57844
      H1    13.91427    4.01591   13.18058
       H     7.72628    3.44163   17.09464
       O     8.11614    3.44377   18.01772
      H1     7.44488    3.06629   18.66626
       H    10.54561    1.41923   18.65112
       O    10.94468    1.40902   17.78090
      H1    11.50764    0.63543   17.80495
       H     7.42906    6.13266   18.44569
       O     8.05031    6.78672   18.81934
      H1     8.72698    7.17542   18.24008
       H     7.25462    8.48847   19.01096
       O     7.24473    9.38044   19.33994
      H1     7.86022    9.92267   18.79599
       H    14.84223    7.10018   15.17744
       O    14.06990    6.81944   15.62613
      H1    13.72386    7.42629   16.25155
       H    15.65975   10.03036   18.34724
       O    14.88119   10.40922   18.82821
      H1    15.17227   10.48346   19.72623
       H     6.75626    7.99227   13.84234
       O     7.19438    8.83821   13.70054
      H1     6.45713    9.45298   13.62385
       H    12.12113    9.63312   17.14474
       O    12.75841    8.95044   17.17292
      H1    13.48475    9.48998   17.37769

