75
frame 1 | Written by MDAnalysis XYZWriter (release 2.4.3)
       H    17.15066  -11.73410   -5.99598
       O    16.58060  -11.30506   -6.61158
      H1    16.78485  -10.35321   -6.55350
       H    16.06610  -14.28171    0.42714
       O    15.80728  -13.55012   -0.19727
      H1    16.02175  -13.75734   -1.12987
       H    16.84881  -11.93850   -0.12938
       O    17.45202  -11.22753    0.00011
      H1    18.28279  -11.60873    0.28903
       H    11.60686  -14.86581   -1.93483
       O    11.86509  -15.13185   -2.79053
      H1    12.45054  -15.91325   -2.76219
       H    16.64510   -9.72724    0.46601
       O    16.54176   -8.74795    0.59837
      H1    16.01105   -8.65152    1.42942
       H    13.57712  -12.21064    1.87578
       O    13.46154  -12.24060    0.91547
      H1    14.29187  -12.72498    0.65877
       H    13.86830  -12.05071   -4.15117
       O    13.75606  -12.99866   -4.00968
      H1    13.12688  -13.12627   -3.25621
       H    16.19654  -15.33956   -5.85356
       O    16.77423  -15.92146   -5.33772
      H1    16.64714  -16.85943   -5.61684
       H    13.63388  -18.34303   -2.85234
       O    13.80243  -17.63163   -2.19924
      H1    13.81484  -18.13326   -1.39603
       H    12.13266  -13.21676    0.39404
       O    11.44279  -13.66877   -0.17864
      H1    11.30520  -14.55270    0.17815
       H    12.99385   -9.48552   -0.83433
       O    13.45099   -9.01884   -1.57569
      H1    14.41253   -9.17075   -1.39578
       H    11.64277  -15.14727   -6.03082
       O    12.09089  -15.95955   -6.24705
      H1    11.70047  -16.20563   -7.10864
       H    15.92678  -14.75683   -2.98190
       O    16.11319  -13.82598   -2.77117
      H1    15.30899  -13.31084   -2.95910
       H    13.06493  -10.36416   -5.27665
       O    13.69658  -10.08807   -4.57568
      H1    13.21817   -9.60593   -3.87189
       H    13.51807  -14.77015   -6.23596
       O    14.42817  -14.46470   -6.19821
      H1    14.43660  -13.81161   -5.45813
       H    18.96134  -14.70639   -1.21229
       O    19.38448  -14.16514   -1.89070
      H1    18.62823  -13.70349   -2.27600
       H    14.46809   -8.96969   -5.61153
       O    14.86458   -8.42395   -6.34419
      H1    14.50673   -7.49228   -6.23413
       H    14.65750  -14.09670   -8.07869
       O    14.45778  -14.29781   -8.98859
      H1    13.95448  -13.57612   -9.26637
       H    11.41319  -13.78082   -4.65579
       O    10.70437  -13.59435   -5.26397
      H1    11.06944  -13.13748   -6.01947
       H    17.53826  -15.19164    1.39549
       O    16.57621  -15.41785    1.44836
      H1    16.38269  -15.40921    2.39902
       H    18.90112  -13.06745   -4.84556
       O    18.23722  -12.38999   -4.54630
      H1    17.49189  -12.97305   -4.24102
       H    16.28661  -16.49918   -3.87926
       O    16.26449  -16.52873   -2.91920
      H1    15.42877  -16.98460   -2.64331
       H    17.87334  -17.29184   -2.29393
       O    18.54975  -17.41758   -1.61193
      H1    19.03792  -18.23966   -1.84920
       H    10.97549  -12.62286   -1.83887
       O    11.21589  -11.97179   -2.53970
      H1    10.48655  -12.29284   -3.07088
       H    18.62380  -11.24725   -3.49920
       O    18.96588  -10.65104   -2.76776
      H1    18.48181  -10.92285   -1.92287

