75
frame 2 | Written by MDAnalysis XYZWriter (release 2.4.3)
       H     2.13324   19.18852   -7.80192
       O     2.35840   18.70326   -8.56199
      H1     2.98066   18.03732   -8.26917
       H    -1.21098   15.31251   -2.61605
       O    -1.88382   15.18381   -1.93549
      H1    -2.41604   15.99540   -1.93207
       H     1.02245   13.45609   -7.13828
       O     1.84795   13.04758   -6.94913
      H1     2.48035   13.77314   -6.67255
       H     2.20365    8.53652   -4.00894
       O     1.88801    8.15372   -4.82170
      H1     1.13095    8.69858   -5.06709
       H     2.16368   14.34023  -10.72571
       O     2.51421   14.76928   -9.93805
      H1     1.77068   15.02089   -9.40555
       H     3.34828   12.51558  -11.35132
       O     3.71293   11.97182  -10.60962
      H1     2.90596   11.96836  -10.07329
       H     0.13256   16.46822   -8.08919
       O     0.55751   16.65563   -8.91904
      H1     1.10100   17.45817   -8.81744
       H    -3.88977    9.68264   -9.31456
       O    -4.23160   10.40566   -8.83472
      H1    -3.52184   11.09435   -8.68404
       H    -1.08225   12.70257   -6.16449
       O    -1.10301   13.18181   -7.00083
      H1    -1.91242   12.89822   -7.51086
       H     4.54048   17.76632   -7.10955
       O     4.39705   17.16694   -7.86561
      H1     4.19260   16.35493   -7.46666
       H     0.11011   11.75103  -10.27367
       O    -0.75503   11.86155  -10.66194
      H1    -0.52991   12.31013  -11.49470
       H     2.67752   12.11240   -5.06146
       O     3.27646   11.42744   -4.72893
      H1     2.67578   10.94147   -4.16745
       H     1.62272   10.72514   -9.13640
       O     1.55362   11.65744   -9.22068
      H1     1.61570   12.09310   -8.35655
       H    -0.20159   10.24841   -5.56529
       O    -0.17146    9.42736   -6.08512
      H1    -1.02546    9.18913   -6.39834
       H     0.98755   15.84905   -3.20499
       O     0.31039   15.22949   -3.61859
      H1     0.17347   15.47170   -4.56210
       H     4.10825   15.01485   -5.46067
       O     3.83527   14.86350   -6.36316
      H1     4.51567   14.25301   -6.70259
       H    -1.19053   16.28534   -5.93468
       O    -0.47268   15.75558   -6.40397
      H1    -0.89484   14.87057   -6.61621
       H     2.39884   13.31863  -12.97349
       O     1.68161   13.62650  -12.36897
      H1     0.82441   13.37572  -12.68251
       H     6.22190   13.35672   -8.40349
       O     5.81223   13.23532   -7.51342
      H1     5.54902   12.32511   -7.55391
       H    -3.77440   15.26403   -7.71862
       O    -3.97963   15.13263   -8.66718
      H1    -3.33398   15.73283   -9.13342
       H     0.11070   12.64320   -4.25947
       O    -0.47595   11.94609   -4.47651
      H1    -0.73907   11.54305   -3.66155
       H    -4.05241   13.74626   -4.91679
       O    -3.47418   14.57782   -4.82113
      H1    -3.11241   14.53840   -3.93996
       H     1.41026    8.61731   -8.46127
       O     1.48034    8.99009   -9.33305
      H1     2.37948    8.71166   -9.53370
       H    -2.02770   12.87327   -9.41113
       O    -2.80514   12.67674   -8.89803
      H1    -3.27773   13.49081   -8.80445
       H    -1.18138   16.48472   -9.81504
       O    -2.09420   16.63852   -9.91251
      H1    -2.24567   17.57177   -9.64003

