75
frame 0 | Written by MDAnalysis XYZWriter (release 2.4.3)
       H    16.98177   14.04467   -6.76188
       O    16.63546   14.72820   -6.17684
      H1    15.84654   14.43365   -5.77351
       H    18.11645   17.24804   -7.80619
       O    17.19490   16.94499   -7.77808
      H1    17.17563   16.18638   -7.22889
       H    18.20548   15.96221  -12.83730
       O    17.89586   15.67434  -11.94583
      H1    17.55560   14.73374  -12.04665
       H    13.29402   19.06971   -6.71097
       O    13.77119   18.66585   -5.98863
      H1    13.05800   18.17798   -5.53270
       H    18.08457   15.27591   -5.25116
       O    18.87629   15.40541   -4.73831
      H1    19.41528   14.62922   -4.82205
       H    15.26269   12.24488   -8.99669
       O    15.64688   12.46048   -8.14197
      H1    15.58375   13.39501   -8.17375
       H    11.91485   13.82931   -9.49897
       O    12.76749   13.82160   -9.90931
      H1    12.74987   14.36566  -10.72826
       H    14.94584   19.19237   -3.09321
       O    14.13297   19.65646   -3.32682
      H1    13.82409   19.37838   -4.20151
       H    11.19417   16.01915   -7.41648
       O    12.14830   16.05493   -7.41414
      H1    12.34828   15.17180   -7.05895
       H     9.49376   16.93504   -8.45804
       O     9.35377   16.14260   -7.91640
      H1     9.47918   15.32871   -8.45705
       H    16.62064   16.91599  -11.95996
       O    16.15979   17.73208  -12.17724
      H1    16.55409   18.47964  -11.78433
       H    18.87219   18.83725  -12.00447
       O    19.67309   18.44955  -12.35744
      H1    19.87213   17.78040  -11.68246
       H    16.23518   18.38757  -13.63800
       O    16.18784   18.95437  -14.46657
      H1    17.08254   19.19367  -14.74229
       H    15.61377   19.41286   -9.10765
       O    16.55678   19.37730   -8.75746
      H1    16.59908   18.38114   -8.55347
       H     8.38616   19.49872   -8.34448
       O     9.27633   19.05506   -8.50927
      H1     9.41675   19.06178   -9.46587
       H    14.65241   16.88208  -12.67362
       O    13.89503   16.36307  -13.10990
      H1    14.42360   15.75387  -13.64012
       H    18.65838   13.28255   -8.11889
       O    18.93549   14.19068   -7.98473
      H1    19.21591   14.43803   -8.90220
       H    14.10925   14.90148   -9.09685
       O    15.02116   15.09163   -8.87422
      H1    15.00287   15.91245   -8.44470
       H    12.99131   18.45965  -13.94402
       O    12.68092   19.11955  -14.51981
      H1    11.71175   19.11112  -14.38769
       H    16.10107   16.68979   -4.95340
       O    15.73175   16.75073   -4.11358
      H1    15.15754   15.94261   -4.13011
       H    10.77764   18.79176  -11.31563
       O     9.83499   18.57944  -11.13432
      H1     9.34217   19.39975  -11.32401
       H    12.07580   17.55857   -3.48175
       O    11.79075   17.41828   -4.38135
      H1    10.81413   17.54821   -4.42159
       H    10.96232   16.70918  -11.82215
       O    11.38639   15.85882  -11.99625
      H1    11.98806   16.06511  -12.72982
       H    18.83451   18.53695   -2.03124
       O    18.03646   18.72929   -2.59527
      H1    18.40462   19.11921   -3.35373
       H    16.45255   19.75947   -7.04702
       O    16.29638   19.84498   -6.05566
      H1    15.65804   19.19554   -5.96504

