75
frame 2 | Written by MDAnalysis XYZWriter (release 2.4.3)
       H    12.98343    8.41771    1.43488
       O    13.13524    7.45575    1.40927
      H1    13.70997    7.34546    0.66550
       H     6.53351   10.34551    2.71839
       O     7.11504    9.69358    2.20376
      H1     6.49783    9.50378    1.46673
       H    11.48837    8.15843   -1.34906
       O    11.61165    9.04153   -0.99035
      H1    10.86767    9.19442   -0.39160
       H    13.05784    5.38232    4.22237
       O    12.59552    4.74492    3.62453
      H1    11.65007    4.74253    3.96299
       H     9.90654    8.48853    4.09448
       O    10.14669    7.57834    4.24871
      H1    10.33343    7.30307    3.31684
       H     8.76995    9.45373    0.95353
       O     9.06439    9.47732    0.03593
      H1     8.73798   10.30381   -0.24816
       H    12.34805    6.93355    6.65072
       O    12.32923    6.96408    5.68924
      H1    11.48520    7.39118    5.47457
       H    10.33744    4.89627    1.17932
       O    10.36160    3.92909    0.92530
      H1    10.67409    3.77191    0.01560
       H     8.24201    6.85911    4.38957
       O     7.45710    6.53687    3.88903
      H1     7.77950    6.69249    2.98789
       H     9.69653    7.11537    7.87735
       O     8.85966    7.36753    7.47639
      H1     8.86266    8.30741    7.77814
       H     9.46974   10.74009    4.42427
       O     9.43079   10.11005    3.70384
      H1     8.54208    9.96024    3.40815
       H     7.30936    7.37370    0.42894
       O     7.80465    6.74272    0.94616
      H1     7.77756    5.99037    0.37874
       H     7.48269    6.45183    7.66756
       O     6.66578    5.90682    7.80818
      H1     6.02697    6.45352    8.32702
       H    13.94000    7.53772    2.99173
       O    14.22209    7.68780    3.93493
      H1    13.36475    7.43552    4.35256
       H    14.48592    9.21583    4.58752
       O    14.81937    9.94270    5.07324
      H1    14.89621   10.69647    4.49959
       H     6.13101   11.32041    5.37207
       O     6.13664   11.46019    6.31571
      H1     6.98639   11.05221    6.64292
       H    11.05095    7.41976    9.05304
       O    11.28659    6.83935    8.32062
      H1    11.13053    5.93568    8.56193
       H    10.49877   11.79317    6.92169
       O     9.82621   11.85024    6.22578
      H1     9.92932   12.66558    5.67189
       H     8.98068   10.49988    7.26754
       O     8.22718   10.13753    7.76693
      H1     8.16504   10.77127    8.52474
       H     9.90965    6.98448    1.01516
       O    10.53484    6.60038    1.64023
      H1    11.48107    6.87295    1.50374
       H     4.75705    6.82859    3.38755
       O     4.84296    7.22159    2.52158
      H1     5.79752    7.47303    2.39000
       H    13.25869    9.68656    3.11552
       O    12.64103   10.07064    2.45388
      H1    11.74419   10.03426    2.80649
       H    12.87160   13.16429    1.25246
       O    12.02197   12.67714    1.04918
      H1    12.17211   11.82199    1.51315
       H     9.63005   13.15684    3.00131
       O     8.99832   12.83655    2.35933
      H1     9.12222   11.85223    2.47135
       H    10.02546    2.71790    4.75459
       O    10.10031    3.66556    5.04782
      H1     9.32618    4.12522    4.77275

