75
frame 2 | Written by MDAnalysis XYZWriter (release 2.4.3)
       H   -15.42119   12.66123   17.76273
       O   -15.48923   11.73933   17.47884
      H1   -15.42997   11.23020   18.32410
       H   -16.85195   13.87995   11.43755
       O   -17.28532   13.08115   11.84917
      H1   -18.10759   12.99042   11.30342
       H   -14.73557   11.83951   15.81803
       O   -14.11613   11.89749   15.09259
      H1   -14.23202   12.74660   14.72632
       H   -13.45128   15.12584   14.20682
       O   -14.02060   14.46035   13.76735
      H1   -14.88964   14.82896   14.09459
       H   -12.26502   17.81822   17.64207
       O   -13.02922   17.23449   17.45017
      H1   -13.73231   17.81024   17.32659
       H   -17.95056    7.15472   14.22670
       O   -17.53925    8.03880   14.31490
      H1   -16.76939    8.05024   13.71696
       H   -11.36226   10.97731   16.16383
       O   -11.07276   11.70969   15.55997
      H1   -11.85363   11.99705   15.14493
       H   -13.82063   11.21908   13.36902
       O   -13.69592   10.93879   12.43737
      H1   -14.16535   10.09152   12.56284
       H   -11.75633   13.85553   11.42447
       O   -12.49084   14.53283   11.47296
      H1   -12.85678   14.28936   12.36364
       H   -14.14928    9.90055   15.70374
       O   -13.96434    8.98699   15.54727
      H1   -14.04483    8.64757   16.46920
       H   -13.50946   13.76270   10.05506
       O   -14.06099   13.35804    9.34905
      H1   -14.75749   12.75641    9.74209
       H   -17.66374   12.75075   13.79447
       O   -17.77906   13.06280   14.70428
      H1   -18.03447   12.31656   15.21503
       H   -11.74362   16.10302   11.22741
       O   -11.63674   17.01085   10.96324
      H1   -11.90146   17.59487   11.68259
       H   -12.46810   16.35774   15.61276
       O   -12.27986   16.11540   14.75060
      H1   -11.46699   15.58454   14.74829
       H   -11.49059   12.98482   16.81128
       O   -12.02066   13.59185   17.32265
      H1   -11.43925   14.27714   17.70429
       H   -15.80973    7.61079   11.92269
       O   -15.46840    8.03719   12.73643
      H1   -14.90238    7.34210   13.14686
       H    -9.91980    9.92533   13.06919
       O   -10.14222    9.60578   13.96288
      H1   -10.43441   10.43345   14.31528
       H   -16.62187   14.48285   15.20495
       O   -16.19388   15.28190   15.50708
      H1   -16.88717   15.75616   16.04142
       H   -14.10240   16.50706   10.91048
       O   -15.04531   16.59123   10.67988
      H1   -15.25922   17.56311   10.60962
       H   -18.25201   15.57960   13.78047
       O   -19.10402   15.86514   13.37278
      H1   -18.76241   16.27819   12.58462
       H   -17.30354   11.44445   17.19471
       O   -18.20101   11.30677   16.88590
      H1   -18.63433   11.84698   17.56066
       H   -12.84318    8.29394   14.26194
       O   -12.19383    7.97494   13.62420
      H1   -11.50087    8.68988   13.61263
       H   -14.12122   14.40827   17.88841
       O   -15.06201   14.35846   18.05572
      H1   -15.38013   15.05246   17.43675
       H   -11.43919    8.86112   17.26898
       O   -10.99277    9.66557   17.61457
      H1   -10.12656    9.34882   17.84808
       H   -16.29599   11.71210   10.66165
       O   -15.93385   11.39798    9.86294
      H1   -16.37200   11.77158    9.06930

