75
frame 3 | Written by MDAnalysis XYZWriter (release 2.4.3)
       H    -5.54233   -8.00578   -2.31978
       O    -5.04007   -8.09945   -1.48293
      H1    -4.90725   -7.22011   -1.13018
       H    -4.71053   -2.72493   -7.09226
       O    -4.04855   -2.08798   -7.48896
      H1    -4.42061   -1.55498   -8.18887
       H    -1.64890   -2.84256   -3.29275
       O    -1.98272   -2.48711   -4.14051
      H1    -2.19476   -3.24925   -4.66603
       H    -4.29121   -0.78441   -5.77694
       O    -4.75446   -0.25240   -5.10741
      H1    -4.09412    0.39577   -4.91838
       H    -3.14971   -5.54259   -5.83314
       O    -4.06323   -5.67227   -6.05901
      H1    -4.18996   -5.99889   -6.97898
       H    -5.26162   -2.11873   -2.76887
       O    -4.29810   -2.34427   -2.51748
      H1    -3.81593   -1.87517   -3.25411
       H    -0.73093   -5.85432   -5.66723
       O    -1.36216   -5.34929   -5.08850
      H1    -0.82025   -5.27725   -4.31069
       H    -1.58361   -5.15605    1.47143
       O    -1.82558   -5.14350    0.56796
      H1    -1.32304   -4.44262    0.28037
       H    -8.96533   -6.03710   -4.31629
       O    -8.69865   -5.72649   -3.39663
      H1    -9.62003   -5.36489   -3.12056
       H    -8.16765   -4.04051   -4.09150
       O    -8.03966   -3.30311   -4.71233
      H1    -7.19306   -3.42500   -5.17637
       H    -0.04632   -2.86871   -1.55435
       O    -0.88717   -3.36415   -1.76875
      H1    -0.53721   -4.14732   -2.18412
       H    -8.98718   -5.75184   -0.07602
       O    -8.79777   -4.94849    0.39621
      H1    -7.86603   -4.94802    0.54288
       H    -4.82601   -1.73026   -0.74630
       O    -4.91741   -1.30747    0.09678
      H1    -5.85065   -1.51208    0.44701
       H    -7.23300   -0.15019   -2.00812
       O    -7.14418    0.74100   -1.70427
      H1    -7.82433    0.85321   -1.01128
       H    -6.87658   -7.11254   -3.63095
       O    -6.26471   -7.82956   -3.80462
      H1    -6.78479   -8.53563   -4.14451
       H    -8.09295   -8.20226   -0.81412
       O    -7.46923   -7.82582   -0.16082
      H1    -6.62766   -7.96353   -0.56822
       H    -4.95968   -5.34965   -4.23184
       O    -5.00179   -5.08975   -3.29859
      H1    -5.01316   -4.13329   -3.29378
       H    -6.08972   -1.12713   -3.89691
       O    -6.76143   -1.58223   -3.37991
      H1    -7.17979   -2.22716   -3.94387
       H    -8.22544   -1.99955    0.08814
       O    -7.70086   -1.59695    0.80111
      H1    -8.18170   -1.85931    1.61759
       H    -1.95580   -7.61068   -5.10359
       O    -2.29903   -8.50185   -5.15726
      H1    -3.22436   -8.49365   -4.78129
       H    -3.54821   -5.18650   -0.32358
       O    -4.45550   -5.55902   -0.52736
      H1    -4.51035   -5.38239   -1.47180
       H    -2.18632   -1.73342    0.76263
       O    -1.69703   -1.36054    0.00935
      H1    -1.68529   -1.94971   -0.71962
       H    -9.78010   -2.27256   -0.89419
       O    -9.05164   -2.79503   -1.17937
      H1    -9.06992   -3.51237   -0.59350
       H    -5.17003   -4.38839   -6.22884
       O    -5.74381   -3.62766   -6.24880
      H1    -6.41726   -3.94427   -6.88167
       H    -6.42176   -5.93369    1.90251
       O    -6.31898   -5.04671    1.46582
      H1    -5.71075   -5.17708    0.77377

