75
frame 0 | Written by MDAnalysis XYZWriter (release 2.4.3)
       H    -7.39464   -8.69981  -16.54436
       O    -7.44619   -9.49237  -17.10123
      H1    -7.50155   -9.28217  -18.03562
       H    -4.60491  -11.55554  -15.55230
       O    -4.14332  -12.30393  -15.23847
      H1    -3.72839  -12.66640  -16.05155
       H    -4.55515   -2.51455  -15.40142
       O    -3.70263   -2.99795  -15.70190
      H1    -3.26640   -3.04262  -14.85025
       H     1.50521   -6.26215  -12.55962
       O     1.31219   -5.51933  -13.22156
      H1     0.88535   -5.87621  -14.03287
       H    -1.39146  -11.12561  -17.95573
       O    -0.77676  -11.82956  -17.69414
      H1    -0.92996  -12.42997  -18.48413
       H     3.36463   -5.49331  -18.55846
       O     3.70787   -6.15764  -19.15086
      H1     3.60298   -5.65958  -19.95940
       H    -4.52783   -9.46897  -16.08652
       O    -4.89256  -10.01365  -16.79549
      H1    -5.83622   -9.74599  -16.92451
       H    -1.47730   -3.57461  -12.31044
       O    -1.89280   -3.59736  -13.24370
      H1    -1.72153   -4.49804  -13.55485
       H     0.50042  -11.02421  -18.38263
       O     1.21653  -10.58418  -18.86710
      H1     1.87781  -10.37822  -18.17619
       H    -3.27266   -5.90085  -17.31334
       O    -4.02874   -5.36850  -17.18957
      H1    -3.75525   -4.57462  -16.68356
       H    -6.60237   -6.55864  -17.15682
       O    -7.05235   -6.83446  -16.35440
      H1    -7.83549   -6.22314  -16.21393
       H    -2.92042  -10.47345  -19.31237
       O    -2.59731   -9.94882  -18.52137
      H1    -3.41615  -10.03836  -17.99609
       H    -0.62043   -9.62029  -15.14716
       O    -0.92671   -9.05548  -14.42883
      H1    -0.29792   -9.41342  -13.77823
       H    -4.17170   -8.41535  -14.11026
       O    -3.95214   -9.37003  -14.06382
      H1    -2.97869   -9.31571  -13.87163
       H    -1.73092   -2.79255  -17.86230
       O    -1.73368   -1.86289  -17.52592
      H1    -2.44184   -1.89982  -16.81965
       H    -2.97864   -5.56492  -11.21743
       O    -2.95044   -6.24263  -11.93575
      H1    -2.98563   -5.70708  -12.74965
       H    -4.64969   -6.43767  -15.34713
       O    -4.74069   -6.91537  -14.48767
      H1    -5.68367   -6.89654  -14.34628
       H     2.55640   -8.78901  -16.82357
       O     3.17018   -9.52081  -17.06983
      H1     3.57379   -9.69623  -16.27632
       H     2.38136   -6.93145  -15.82111
       O     1.66295   -7.50163  -16.04595
      H1     1.15902   -6.97869  -16.68007
       H    -5.51514   -5.17294  -18.12112
       O    -6.16513   -5.41854  -18.77548
      H1    -5.79653   -6.16101  -19.24720
       H     0.77451   -7.13948  -19.18642
       O     0.44067   -6.31099  -18.82119
      H1     1.01597   -5.66249  -19.24372
       H    -0.36533   -3.66249  -17.13467
       O    -0.87849   -4.44770  -17.40191
      H1    -0.23342   -5.08143  -17.76511
       H    -2.28825   -8.11989  -17.86195
       O    -1.91282   -7.28884  -17.62133
      H1    -1.34197   -7.03438  -18.34961
       H    -1.39624   -6.53459  -15.17942
       O    -1.13759   -5.64999  -14.83599
      H1    -1.06684   -5.12192  -15.62135
       H    -0.66544  -11.67340  -14.52701
       O     0.05173  -11.60420  -15.17719
      H1    -0.17588  -12.08506  -16.00199

