75
frame 2 | Written by MDAnalysis XYZWriter (release 2.4.3)
       H    18.96625  -11.76897   13.49394
       O    19.40763  -12.48386   13.04572
      H1    19.40766  -13.29771   13.63469
       H    17.89621  -11.64047   15.13213
       O    17.75455  -12.36695   15.70477
      H1    16.88019  -12.13096   16.16957
       H    14.73626   -7.35266   11.88314
       O    14.08227   -7.38671   11.14869
      H1    14.29299   -6.74156   10.44467
       H    13.73121  -11.39512   14.92787
       O    13.28052  -10.55919   14.73344
      H1    12.64735  -10.85998   14.07596
       H    19.12653  -12.94897   11.42199
       O    18.82789  -13.20834   10.51159
      H1    19.68660  -13.16969   10.06838
       H    15.56817  -13.10156   17.20425
       O    15.31693  -12.36911   16.68631
      H1    15.28214  -11.67504   17.31848
       H    13.25732   -6.66413   15.74258
       O    12.71359   -6.01340   15.23034
      H1    12.18856   -6.58590   14.67331
       H    12.99703   -9.25682   18.35214
       O    13.59431   -8.92337   19.03073
      H1    13.51548   -7.96686   18.93916
       H    19.29279   -1.28022   18.73758
       O    19.35308   -2.20902   19.03076
      H1    19.59296   -2.66883   18.24137
       H    15.41771   -8.56891   16.32025
       O    14.78913   -8.44919   15.60995
      H1    14.50404   -9.39240   15.47820
       H    16.49640   -4.50739   10.09033
       O    17.05111   -3.69238   10.23475
      H1    17.66846   -3.82217   10.95038
       H    16.63398   -9.79272   18.80434
       O    16.09005   -9.54169   18.07485
      H1    15.30082   -9.11910   18.43852
       H    19.77307   -4.37028   15.99675
       O    19.78885   -3.56608   16.50174
      H1    19.06539   -3.06975   16.08811
       H    15.50776   -7.69228   14.13996
       O    15.97453   -7.23411   13.39932
      H1    16.12518   -6.33504   13.76267
       H    13.72270  -10.78483   12.34856
       O    13.39828  -11.60518   11.99987
      H1    13.69604  -11.70658   11.05777
       H    16.89918  -13.90111   14.81221
       O    16.16435  -14.57192   14.86837
      H1    16.37076  -15.02002   15.71332
       H    16.04862   -5.73377   17.41624
       O    15.47023   -5.31171   18.07963
      H1    15.15834   -4.51688   17.59595
       H    17.80007   -9.59369   14.27939
       O    17.94533  -10.19067   13.55747
      H1    17.29849   -9.99314   12.80066
       H    17.69320   -6.67152   15.69116
       O    17.33930   -5.82199   16.01409
      H1    17.91739   -5.53649   16.71100
       H    18.55659   -7.25202   11.08570
       O    18.45760   -6.49999   11.69222
      H1    17.91505   -6.74723   12.45942
       H    18.88290   -7.52608   14.82053
       O    18.39253   -8.15526   15.29502
      H1    18.74655   -8.27393   16.21465
       H    16.88350   -4.80081   14.71941
       O    16.53957   -4.65970   13.79628
      H1    16.64604   -3.74689   13.53389
       H    15.76443  -11.24209   11.20975
       O    16.20059  -10.37189   11.29306
      H1    16.12270   -9.97367   10.41303
       H    18.97996   -8.25486    9.18158
       O    19.00546   -8.39458   10.10398
      H1    18.45834   -9.12709   10.27413
       H    19.48582   -6.31706   17.99028
       O    18.82246   -5.78785   18.48506
      H1    18.49557   -6.27121   19.28651

