75
frame 2 | Written by MDAnalysis XYZWriter (release 2.4.3)
       H   -11.86298    9.15030   -2.02551
       O   -10.98510    8.65716   -2.03451
      H1   -11.12173    8.02584   -1.32540
       H    -7.87079   11.18983   -4.37532
       O    -8.03039   12.12166   -4.45854
      H1    -8.58770   12.05365   -5.23570
       H    -8.34134   10.55530   -0.77322
       O    -9.27920   10.36852   -0.56986
      H1    -9.71183    9.84755   -1.30133
       H    -7.62493   13.52784    1.59223
       O    -6.86776   13.42702    1.01333
      H1    -7.17699   12.71039    0.45760
       H   -14.97098   13.58457   -3.16800
       O   -14.30837   13.00688   -2.87351
      H1   -13.90241   13.32252   -2.05448
       H   -11.03784   16.76652   -6.50851
       O   -11.49948   16.46789   -7.28877
      H1   -12.34963   16.94942   -7.24946
       H    -9.69818   18.34992   -5.17408
       O    -9.75991   17.38004   -5.12608
      H1    -9.04554   17.09280   -5.69290
       H    -8.39324   17.05452   -2.21837
       O    -7.66981   16.45168   -2.03731
      H1    -7.95404   15.52597   -2.23937
       H    -4.94422   15.83231   -5.06342
       O    -5.77641   16.31838   -5.18029
      H1    -6.08216   16.55843   -4.24072
       H    -4.70325   11.64502   -4.81051
       O    -5.14992   12.48540   -4.44512
      H1    -6.09568   12.46035   -4.64403
       H   -10.01045   11.96646   -0.60644
       O   -10.33422   12.85025   -0.40760
      H1   -10.15527   13.23010   -1.29552
       H   -11.43956   12.57510   -4.66719
       O   -11.71146   13.23805   -4.04044
      H1   -12.65935   13.19384   -3.90430
       H    -9.82038   17.81195   -3.29150
       O    -9.73020   18.15275   -2.35616
      H1    -9.63680   19.09746   -2.37855
       H    -7.89580   14.87079   -7.05278
       O    -7.86723   15.81890   -6.91955
      H1    -7.14896   15.94739   -6.28927
       H    -5.76979   11.38928   -1.09931
       O    -6.56418   10.88278   -0.98002
      H1    -6.29191    9.95330   -1.17866
       H    -9.57167   10.47506   -7.28767
       O    -9.46868   11.45657   -7.04054
      H1   -10.03174   11.92983   -7.66374
       H   -11.36006   13.27429   -8.80128
       O   -11.71890   13.24580   -7.92208
      H1   -11.57775   14.10000   -7.53526
       H    -4.30012   12.10989   -2.61886
       O    -3.94665   12.26302   -1.73280
      H1    -3.59680   13.14895   -1.83397
       H    -5.16550   18.06363   -3.07891
       O    -6.09746   18.32730   -3.03562
      H1    -6.45943   17.52999   -2.62450
       H    -7.03119   13.20406   -8.59325
       O    -6.97826   13.07874   -7.63228
      H1    -7.58492   12.27206   -7.49007
       H   -12.11994   13.54235   -0.41363
       O   -13.01518   13.81979   -0.67052
      H1   -13.17267   14.73359   -0.40278
       H   -11.11112   11.08570   -6.11472
       O   -11.86263   10.87977   -5.54598
      H1   -11.67198   10.00816   -5.07410
       H    -7.86906    8.73635   -4.42025
       O    -7.25569    9.54396   -4.42114
      H1    -6.78664    9.56212   -5.28245
       H   -10.38358   14.39597   -3.27240
       O    -9.46842   14.30098   -3.03989
      H1    -9.35137   13.42444   -3.35042
       H    -9.70539   15.30176    0.19811
       O    -9.95303   15.69508    1.01491
      H1    -9.30348   16.40704    1.09248

