75
frame 0 | Written by MDAnalysis XYZWriter (release 2.4.3)
       H    -6.89018  -16.80739   11.44504
       O    -5.94213  -16.73653   11.39164
      H1    -5.61387  -17.34342   10.75272
       H    -5.94965  -17.72538    7.08327
       O    -5.43313  -17.24623    6.34812
      H1    -5.79332  -17.48754    5.43302
       H   -11.84447  -17.21328    6.92943
       O   -11.38550  -17.55676    6.21785
      H1   -11.64296  -17.23176    5.42140
       H    -9.35624  -17.12976    3.23720
       O    -8.80373  -17.91927    3.21968
      H1    -9.46090  -18.59510    3.25534
       H    -6.74579  -13.62325    6.46300
       O    -6.75737  -12.75679    6.04413
      H1    -7.67470  -12.42927    6.08814
       H   -10.53733  -11.22140    9.50559
       O    -9.72928  -11.49899    9.14550
      H1    -9.84332  -11.04228    8.26695
       H    -8.16917  -11.80755   10.59523
       O    -7.46616  -11.95151   11.27793
      H1    -7.59440  -11.41892   12.10428
       H    -9.43168  -17.52026   12.39175
       O    -8.99366  -16.86037   11.87000
      H1    -9.40761  -16.93015   11.01257
       H    -9.69841  -12.85108    4.48271
       O    -9.19491  -12.41115    3.77613
      H1    -9.08718  -13.02569    3.02752
       H   -12.83029  -15.26884    8.48695
       O   -12.15221  -15.83929    8.92322
      H1   -12.62555  -16.45675    9.52132
       H    -5.24659  -10.19080    7.17995
       O    -4.98513  -10.47687    6.28647
      H1    -5.47140  -11.34726    6.26180
       H   -11.70422  -15.94775    3.00839
       O   -10.73713  -15.74280    3.00153
      H1   -10.61877  -15.10232    3.78756
       H   -11.44597  -14.00101    5.96437
       O   -10.61296  -13.88815    5.60242
      H1    -9.99350  -14.39866    6.10739
       H    -7.04323  -17.19162    2.52156
       O    -6.41909  -16.56742    2.18223
      H1    -6.75049  -16.11789    1.39422
       H   -10.25060  -11.65599    6.46066
       O   -10.18350  -10.73577    6.60018
      H1    -9.42275  -10.49193    6.01596
       H    -8.86551  -17.04144    8.87116
       O    -9.72680  -17.38406    9.10473
      H1   -10.35783  -16.62722    8.93639
       H    -7.37101  -19.23406    7.65212
       O    -7.06597  -18.47213    8.26092
      H1    -6.59766  -18.86807    9.02501
       H    -2.43124  -17.25105    7.37110
       O    -3.21357  -17.54034    7.82903
      H1    -3.88048  -17.27085    7.12645
       H    -2.93056  -15.24257    4.72008
       O    -3.30396  -14.35493    4.73730
      H1    -4.16311  -14.46140    4.36226
       H    -6.27314  -13.22870    4.33980
       O    -5.91143  -13.53762    3.47178
      H1    -6.56313  -14.12585    3.14371
       H    -9.69498  -16.87771    6.35969
       O    -8.95715  -16.29667    6.21174
      H1    -8.54860  -16.72060    5.44785
       H    -9.26828  -13.49215    9.30113
       O    -9.01952  -14.40494    9.58308
      H1    -8.31796  -14.63410    8.96535
       H    -3.69686  -14.54815    8.39244
       O    -4.33504  -14.24717    7.73614
      H1    -4.02419  -14.60944    6.88608
       H    -7.60285  -15.46104    7.08549
       O    -7.08880  -14.81667    7.59961
      H1    -6.15920  -15.07442    7.63365
       H    -5.94672  -11.93084   10.31706
       O    -5.31706  -11.96902    9.49145
      H1    -5.36520  -12.80473    9.02628

