75
frame 3 | Written by MDAnalysis XYZWriter (release 2.4.3)
       H     4.25894   11.27863   17.86294
       O     4.61840   10.36072   17.85917
      H1     5.42461   10.45239   18.42080
       H     5.60601    4.73550   18.96231
       O     5.17313    5.60951   19.07462
      H1     4.48649    5.76084   18.43209
       H     2.48737    6.08574   16.76122
       O     3.20322    6.48609   17.24267
      H1     3.10830    7.42772   17.09154
       H     1.80180    8.70992   19.84772
       O     1.15925    9.40029   19.65515
      H1     1.03372    9.23448   18.70702
       H     4.32065    3.09638   14.15576
       O     4.38113    2.14097   14.44037
      H1     4.04618    2.10073   15.33944
       H     9.73883    8.69425   15.32711
       O     9.06774    9.26540   15.00956
      H1     8.19816    8.88252   15.29315
       H     3.85489    5.71177   15.71600
       O     4.37291    5.38917   14.96655
      H1     4.00797    5.91942   14.26580
       H     3.37283    9.45874   15.20055
       O     2.97700    9.13158   16.05657
      H1     3.54806    9.62784   16.66714
       H     2.41742    1.92587   19.51984
       O     2.73520    1.76548   18.66004
      H1     3.64556    2.12264   18.61096
       H     7.27398    4.98128   15.47559
       O     6.81614    5.70130   15.94711
      H1     5.85376    5.59642   15.71378
       H    -0.68703    6.25115   18.23841
       O    -0.71415    6.51076   17.27277
      H1    -0.38035    7.41825   17.31485
       H    -2.07722    4.97202   14.31652
       O    -2.39824    5.73572   14.87339
      H1    -1.87872    5.97590   15.62084
       H     0.98201    6.44605   12.95959
       O     1.05063    7.02154   13.78113
      H1     1.10232    6.43822   14.53753
       H     0.49252    5.49029   16.29952
       O     1.29737    5.30320   15.74753
      H1     1.61076    4.39070   15.84273
       H    -2.78484   10.44986   15.13844
       O    -2.67526    9.51655   15.31971
      H1    -1.89539    9.43178   15.87657
       H     1.07694    2.64413   16.05564
       O     2.02385    2.77950   16.13895
      H1     2.27083    2.45755   17.09393
       H     2.57841    5.18823   12.10555
       O     3.22461    5.90238   12.31468
      H1     2.69005    6.42512   12.88000
       H     5.91813    2.03751   18.06714
       O     5.36116    2.63789   18.56987
      H1     5.70823    2.48170   19.44785
       H     0.74925    9.34701   16.41246
       O    -0.03084    9.41635   16.99658
      H1    -0.07934   10.39374   17.25517
       H     6.60827    6.47438   18.66339
       O     7.34847    7.01539   18.31334
      H1     7.56190    6.67469   17.42801
       H     7.58626    8.81955   18.53560
       O     7.40301    9.71413   18.73923
      H1     7.77187   10.23330   17.99219
       H    -0.12714    8.40923   13.68158
       O    -0.56977    9.17323   13.22764
      H1    -1.54038    8.96483   13.26645
       H     5.57408    9.43886   12.66187
       O     6.09028    9.04107   11.94434
      H1     6.44021    9.78247   11.39905
       H     3.46494   10.11117   13.15263
       O     4.20017   10.02601   13.78543
      H1     4.51356   10.88496   14.08961
       H     6.92633    7.53624   15.59866
       O     6.58032    8.41198   15.43728
      H1     5.83076    8.55209   16.01943

