75
frame 3 | Written by MDAnalysis XYZWriter (release 2.4.3)
       H   -18.63884   -0.40365   -5.34703
       O   -18.64347    0.55571   -5.35171
      H1   -18.09469    0.72436   -4.55167
       H   -14.22267    2.10581   -5.59909
       O   -13.42593    1.67501   -5.23481
      H1   -12.86867    1.48554   -5.95055
       H   -13.58817    5.27763   -2.18865
       O   -13.80711    5.79417   -2.98590
      H1   -13.80533    6.74509   -2.74844
       H   -18.00897    3.92922  -10.27553
       O   -18.35718    3.21345  -10.77725
      H1   -18.79359    2.55286  -10.22552
       H   -10.16532    2.71190   -5.80155
       O    -9.73644    2.59338   -4.90098
      H1   -10.40237    2.94977   -4.31994
       H   -15.61631   -1.38210   -8.44880
       O   -15.01273   -2.13720   -8.47132
      H1   -14.74085   -2.12534   -9.39046
       H   -15.67432    1.69160  -11.91391
       O   -15.84419    2.50862  -11.36307
      H1   -16.80887    2.63396  -11.21145
       H   -13.33559   -1.08008   -9.00642
       O   -12.42052   -1.16054   -9.19977
      H1   -12.36044   -0.55092  -10.00646
       H   -13.78514    2.90549   -9.29317
       O   -13.04861    3.51016   -9.28962
      H1   -13.44051    4.25697   -9.79128
       H   -17.23852    4.36650   -4.18005
       O   -16.61797    4.05601   -3.51954
      H1   -15.78779    4.42895   -3.81791
       H   -14.29105    6.33815   -8.68434
       O   -15.18033    6.33928   -8.26179
      H1   -15.80567    5.93339   -8.88123
       H   -12.97204    5.53582   -6.75971
       O   -12.90530    4.55717   -6.74809
      H1   -12.88460    4.19084   -7.61402
       H   -16.10691    3.24902   -6.55684
       O   -15.23344    2.86076   -6.73020
      H1   -14.63983    3.64498   -6.67049
       H   -13.40235   -1.08245   -3.84689
       O   -13.61991   -1.23552   -4.78359
      H1   -13.94723   -0.40264   -5.06352
       H   -12.39790    7.16653   -9.68374
       O   -12.75402    6.39699   -9.25148
      H1   -12.02330    5.94330   -8.85282
       H   -17.34511    6.45374   -6.27616
       O   -16.45368    6.36933   -5.85674
      H1   -15.94326    6.12631   -6.63594
       H   -17.46699    0.33580   -7.00414
       O   -17.42404   -0.24367   -7.74660
      H1   -17.86488    0.19510   -8.44918
       H   -15.38703    1.85681   -9.79596
       O   -14.90303    1.44389   -9.07117
      H1   -15.11878    1.96122   -8.29689
       H   -17.13968    5.88906  -10.73302
       O   -17.39153    5.54552   -9.84615
      H1   -18.14241    6.07583   -9.59688
       H   -12.30427    3.08587   -4.20778
       O   -11.88475    3.59903   -3.48659
      H1   -12.37323    4.38700   -3.31776
       H   -17.46319    4.74826   -6.45113
       O   -17.66909    3.83376   -6.20559
      H1   -18.48330    3.57791   -6.58812
       H   -14.98052    1.21685   -1.38486
       O   -15.63050    1.87397   -1.11050
      H1   -15.44614    2.72459   -1.56716
       H   -15.76572    1.08664   -3.31834
       O   -16.14074    0.52705   -3.97763
      H1   -16.29975   -0.22416   -3.44998
       H   -11.86452    0.57180   -7.84957
       O   -11.37979    1.28208   -7.37663
      H1   -10.50324    0.85002   -7.22026
       H   -13.09602    7.92943   -6.87257
       O   -13.14475    7.27385   -6.11284
      H1   -14.04796    7.26286   -5.74763

