75
frame 3 | Written by MDAnalysis XYZWriter (release 2.4.3)
       H    -7.00763    5.69857   -6.53456
       O    -6.59677    5.06809   -5.93749
      H1    -7.36287    4.71533   -5.48758
       H    -7.35112    6.19189   -8.77968
       O    -7.84261    6.35792   -7.98377
      H1    -8.76382    6.13446   -8.10239
       H    -5.81112    8.69456   -6.94221
       O    -6.54378    8.22271   -6.51315
      H1    -6.87783    7.57068   -7.14361
       H    -7.08966    9.03486   -9.46708
       O    -7.87015    8.80953   -9.96296
      H1    -8.67091    8.88002   -9.41833
       H    -0.78229    4.48362   -8.95504
       O    -1.29660    5.06197   -8.34517
      H1    -1.35870    5.79081   -8.98295
       H    -2.85656    7.44146   -5.70445
       O    -2.58204    8.36752   -5.49033
      H1    -3.25252    8.84778   -6.00217
       H    -4.34768    9.07437   -4.12353
       O    -4.82455    9.83029   -3.77139
      H1    -5.77245    9.63371   -3.76386
       H    -3.31400    7.07778  -10.34598
       O    -3.43077    6.36226  -10.97856
      H1    -3.33724    6.75607  -11.86244
       H    -8.05250   11.00139   -4.55628
       O    -7.88466   11.91758   -4.99617
      H1    -8.59236   11.96693   -5.64442
       H    -5.02893    5.86976   -3.92650
       O    -5.26091    5.42548   -3.06875
      H1    -4.73282    4.65374   -3.09150
       H     0.47666    8.36141   -9.18648
       O    -0.15220    7.83054   -9.67853
      H1     0.25567    6.95791   -9.93501
       H    -3.58903    9.42827   -7.75196
       O    -4.31721    9.71144   -7.17779
      H1    -4.37647   10.67423   -7.17063
       H    -1.09097   12.19121   -5.13400
       O    -0.86218   12.49124   -6.03972
      H1    -1.73763   12.49996   -6.49648
       H    -2.16768   10.48471   -1.50344
       O    -2.42420    9.81264   -2.25247
      H1    -3.28272   10.00311   -2.64806
       H    -1.11346   11.75949  -10.21360
       O    -2.05681   11.51049  -10.25728
      H1    -2.61454   12.26575  -10.38834
       H    -4.86592   11.82561   -4.60271
       O    -5.28629   12.70064   -4.83482
      H1    -6.14187   12.48553   -5.18601
       H    -4.58661    5.57577   -6.04949
       O    -3.85253    5.93549   -5.60639
      H1    -3.25725    5.28627   -5.18078
       H    -1.97550    8.32833   -9.63083
       O    -2.90705    8.59618   -9.47362
      H1    -2.91901    9.45499   -9.90230
       H    -1.28499   10.24564   -6.44375
       O    -0.76591    9.62416   -6.98219
      H1    -1.13403    8.81717   -6.60861
       H   -10.44459    8.87943   -7.55554
       O    -9.61706    9.32837   -7.75532
      H1    -8.97898    9.09911   -7.10922
       H    -4.02722   13.89777   -5.38086
       O    -3.72567   14.79750   -5.71729
      H1    -2.77218   14.88400   -5.44637
       H     0.74748    9.56970   -7.84545
       O     1.52566    9.51237   -8.44175
      H1     2.06928    8.90778   -7.96559
       H    -2.57249   11.98552   -8.56440
       O    -3.03336   12.37507   -7.78483
      H1    -3.29693   13.24047   -8.18353
       H    -7.89491   11.97762  -11.14804
       O    -7.98006   11.14961  -11.58012
      H1    -7.60924   10.48016  -10.99879
       H    -8.93751    8.59585   -4.06357
       O    -8.44814    9.23818   -4.62806
      H1    -7.66995    8.81037   -5.02943

