75
frame 3 | Written by MDAnalysis XYZWriter (release 2.4.3)
       H     8.63830  -12.13509   10.89053
       O     9.25843  -12.84724   10.71073
      H1     8.65808  -13.51292   10.33229
       H    10.63757  -13.78318    3.40679
       O    11.18161  -14.28564    4.04033
      H1    11.38754  -15.10943    3.53073
       H     8.58059  -14.52789    5.86247
       O     9.49273  -14.48068    6.23252
      H1    10.03535  -14.20518    5.50582
       H     8.56163  -16.88623    0.30293
       O     8.65004  -16.07399    0.78444
      H1     8.65275  -16.29120    1.71342
       H     2.89547  -14.72757    1.45981
       O     2.63391  -15.20677    2.29597
      H1     3.38473  -15.88484    2.21536
       H     8.00235  -13.30242    2.71096
       O     7.18551  -13.33820    3.23158
      H1     6.65250  -13.89728    2.58459
       H     3.82392  -19.64291    8.92344
       O     3.73288  -18.89513    9.57462
      H1     3.96643  -18.12405    9.05031
       H     5.25532  -17.50049    2.98244
       O     4.87372  -17.29695    2.08913
      H1     5.40484  -16.59371    1.84748
       H     4.48529  -11.24873    8.83885
       O     3.73068  -11.87109    8.50421
      H1     4.17495  -12.72171    8.18580
       H     6.92370  -15.28927    1.05902
       O     6.08111  -14.97418    1.22585
      H1     5.66490  -14.76097    0.38914
       H     6.90947  -17.61923    9.78140
       O     7.55207  -17.10950   10.23820
      H1     7.30091  -17.18111   11.14753
       H     3.84376  -16.50596    7.23233
       O     3.87701  -16.44266    8.24556
      H1     3.00262  -16.18464    8.61655
       H    10.01172  -17.82466    8.25721
       O     9.87401  -18.35605    9.06230
      H1     8.98461  -18.14438    9.38249
       H     8.56124  -19.63196    3.20028
       O     7.72705  -19.21255    3.15487
      H1     7.18559  -19.63211    3.81532
       H     3.69255  -16.09535    5.20883
       O     3.55258  -16.91456    5.67159
      H1     2.60778  -16.96670    5.79182
       H     5.16801  -11.61505    5.40219
       O     4.59194  -11.87026    4.67193
      H1     5.13845  -11.82552    3.83295
       H     6.48525  -14.69150    4.95228
       O     6.54644  -15.02635    5.82517
      H1     6.76557  -15.96320    5.88810
       H     8.52083  -17.83075    5.59912
       O     7.63500  -17.85359    6.00290
      H1     7.46042  -18.82865    6.17537
       H     3.64145  -13.32422    4.93914
       O     3.01665  -14.07018    4.89321
      H1     2.79650  -14.16996    3.95215
       H     6.56280  -14.62132    9.01906
       O     7.40634  -14.65548    9.46311
      H1     7.51214  -15.55343    9.80688
       H     9.88055  -11.95327    2.51449
       O     9.73652  -12.89591    2.27996
      H1     9.26370  -12.99805    1.44701
       H     8.92952  -17.22072    3.51225
       O     8.87088  -16.31024    3.29356
      H1     9.70142  -15.98664    3.73619
       H    10.18876  -16.13587    6.61091
       O    10.49211  -17.03182    6.60837
      H1    11.42106  -17.12826    6.73273
       H     5.65834  -14.69731    7.21547
       O     5.08180  -14.11352    7.74814
      H1     4.54393  -14.72743    8.26596
       H    10.22069  -12.72182    9.09721
       O    10.58408  -12.60107    8.21150
      H1     9.95351  -13.03304    7.66554

