75
frame 0 | Written by MDAnalysis XYZWriter (release 2.4.3)
       H    11.68455    2.60044  -17.69130
       O    12.26720    2.09119  -18.23588
      H1    12.54434    1.31136  -17.69110
       H    15.67551   -2.15429  -15.07427
       O    16.02542   -1.78536  -14.30695
      H1    16.95650   -1.76890  -14.41359
       H    13.76522   -0.67897  -17.06172
       O    13.66619    0.20783  -16.70774
      H1    14.58165    0.50820  -16.64150
       H    13.21685    4.54791  -15.58876
       O    13.54397    5.16269  -14.95121
      H1    13.83239    5.88228  -15.47671
       H    10.96143   -1.65812  -17.70223
       O    11.63546   -2.41285  -17.75681
      H1    11.21399   -3.28168  -18.02169
       H    16.32701   -2.71291  -12.87710
       O    16.26267   -3.42093  -12.23736
      H1    15.73080   -4.10710  -12.65310
       H    11.84093   -3.80757  -14.48888
       O    12.58697   -4.39888  -14.23327
      H1    12.21281   -5.29520  -14.40163
       H    18.86510   -0.56446  -14.45675
       O    18.76546   -1.30259  -13.82248
      H1    19.59417   -1.85862  -13.84110
       H    15.83989   -2.37958  -17.31148
       O    15.03704   -2.31987  -16.73525
      H1    14.61131   -3.18436  -16.86030
       H    12.62557   -0.07910  -13.75545
       O    12.02511    0.36525  -14.35828
      H1    12.59106    0.45924  -15.14985
       H    10.23776   -2.21432  -13.59312
       O    10.83523   -2.05771  -14.30966
      H1    11.12003   -1.10352  -14.34706
       H    16.89598   -2.97516  -19.21218
       O    17.26407   -2.29604  -18.74995
      H1    18.16357   -2.51052  -18.51572
       H     8.12222    0.60606  -16.11411
       O     8.63294    1.18841  -16.68243
      H1     7.99096    1.78769  -17.08056
       H    13.87734    3.43333  -17.94094
       O    14.48026    4.16035  -17.88323
      H1    14.43946    4.58589  -18.75493
       H    10.22214    0.02151  -19.09852
       O     9.77970   -0.46317  -18.38130
      H1     9.38385    0.15184  -17.77410
       H    14.81376    2.74567  -11.75617
       O    14.07547    2.08715  -11.70660
      H1    13.28080    2.57321  -11.98977
       H    17.70004    2.19854  -17.80683
       O    18.64536    2.01606  -17.72045
      H1    18.98211    1.41234  -18.41953
       H    14.61546    3.47778  -14.01319
       O    15.46826    3.17979  -14.36119
      H1    15.28276    2.53721  -15.04734
       H    10.01603    2.50498  -16.23620
       O    10.68068    3.20912  -16.02655
      H1    10.44184    3.92729  -16.64112
       H     9.22799    1.74229  -11.55484
       O     9.78489    0.98259  -11.78102
      H1    10.59146    1.31220  -12.16179
       H     9.76707   -3.17436  -15.85012
       O     9.02355   -3.45829  -16.44144
      H1     8.42354   -4.02220  -15.82092
       H    14.89447   -0.61382  -13.41683
       O    14.20970   -0.35278  -12.77267
      H1    14.40033    0.58002  -12.49489
       H    11.62075    2.14258  -13.42894
       O    11.80225    2.82071  -12.76303
      H1    11.15202    3.49653  -12.97111
       H    13.12173   -3.83781  -17.26965
       O    13.70470   -4.55109  -16.94898
      H1    13.57312   -4.58166  -15.99667
       H    15.42247    2.77912  -17.72768
       O    15.91162    1.91659  -17.74091
      H1    15.63214    1.35658  -18.45002

