75
frame 3 | Written by MDAnalysis XYZWriter (release 2.4.3)
       H   -13.58817    5.27763   -2.18865
       O   -13.80711    5.79417   -2.98590
      H1   -13.80533    6.74509   -2.74844
       H   -19.55849    4.90681    2.16402
       O   -18.67079    4.49128    2.08525
      H1   -18.74964    3.76473    1.41877
       H   -14.59777    8.66107   -1.80100
       O   -13.87980    8.63475   -2.48094
      H1   -14.00183    9.45631   -3.02136
       H   -19.29748    1.04749    4.42562
       O   -18.70241    1.26575    3.64285
      H1   -18.29538    2.14395    3.84635
       H   -16.46410    2.27089    4.86186
       O   -16.09025    1.69241    5.55233
      H1   -16.86757    1.36069    5.97733
       H   -11.30144    1.93377    0.94968
       O   -12.24242    2.24018    0.83390
      H1   -12.56924    1.74175    0.06612
       H   -17.23852    4.36650   -4.18005
       O   -16.61797    4.05601   -3.51954
      H1   -15.78779    4.42895   -3.81791
       H   -17.20892    7.27211   -3.95846
       O   -17.94759    7.78970   -3.63170
      H1   -17.70527    8.40086   -2.93810
       H   -18.75905    7.62693    2.13357
       O   -18.70267    7.92910    3.04917
      H1   -17.91051    7.52002    3.38014
       H   -14.76678    1.87495    1.95178
       O   -15.45859    2.37476    1.53235
      H1   -15.52642    2.08675    0.61634
       H   -15.27323    8.07788    0.81071
       O   -15.16662    8.64144    0.03979
      H1   -16.02862    8.96426   -0.20253
       H   -13.03410    7.00573    3.17423
       O   -13.55149    7.34184    2.49540
      H1   -13.05637    7.14276    1.69479
       H   -18.87494    4.75083   -1.36001
       O   -18.13236    4.21393   -1.13878
      H1   -17.67555    4.09157   -1.99897
       H   -17.60515    4.10823    3.32742
       O   -16.87355    3.51738    3.68072
      H1   -16.46567    3.12514    2.86669
       H   -13.40749    3.25212    4.47949
       O   -13.55154    3.89822    5.20037
      H1   -14.51579    3.88086    5.26877
       H   -12.99349    3.64193   -0.13176
       O   -13.43762    4.29740   -0.71408
      H1   -14.11108    4.74162   -0.17615
       H   -12.30427    3.08587   -4.20778
       O   -11.88475    3.59903   -3.48659
      H1   -12.37323    4.38700   -3.31776
       H   -15.21402    6.63869    2.45749
       O   -16.05502    6.30799    2.79461
      H1   -16.36143    5.63501    2.17037
       H   -15.63537    6.17416    6.03577
       O   -15.98033    6.85779    5.45099
      H1   -15.92621    6.54947    4.49704
       H   -14.98052    1.21685   -1.38486
       O   -15.63050    1.87397   -1.11050
      H1   -15.44614    2.72459   -1.56716
       H   -18.24115    2.31409   -0.24840
       O   -18.41730    2.02505    0.67967
      H1   -17.69716    1.44451    0.85598
       H   -19.84970    7.85166    0.30647
       O   -19.08972    7.29627    0.27270
      H1   -19.30812    6.60509   -0.38107
       H   -12.12278    6.11974    0.19122
       O   -12.01180    7.05537    0.16988
      H1   -11.07715    7.22273    0.50111
       H   -18.07548    8.59137   -0.72008
       O   -17.42477    9.22912   -1.16007
      H1   -17.75275   10.08391   -0.94951
       H   -15.82254    4.16210    1.01242
       O   -16.00156    4.99261    0.53821
      H1   -16.87731    4.86073    0.12119

