75
frame 4 | Written by MDAnalysis XYZWriter (release 2.4.3)
       H   -16.87150   -5.28290   -2.82425
       O   -17.62044   -5.71148   -2.42543
      H1   -18.41013   -5.21284   -2.75315
       H   -15.54395   -7.35311   -1.98031
       O   -14.94501   -7.21454   -1.23760
      H1   -14.16810   -6.84943   -1.66307
       H   -16.92615   -4.98774   -6.58722
       O   -17.12184   -5.24768   -5.68237
      H1   -17.34082   -4.36073   -5.28729
       H   -11.44100   -5.76118  -10.06838
       O   -11.91398   -5.65119   -9.21824
      H1   -11.74615   -4.74002   -8.91250
       H   -14.52538   -4.95430   -3.56494
       O   -15.41198   -4.68320   -3.59388
      H1   -15.62320   -4.97464   -4.54015
       H    -9.03714   -5.98146   -4.93445
       O    -9.00903   -5.83378   -4.01217
      H1    -9.81930   -5.28529   -3.82362
       H   -14.96605   -2.75451   -4.37440
       O   -14.96365   -2.17891   -5.11398
      H1   -14.04320   -2.26096   -5.40608
       H   -16.48905   -5.61955   -8.94893
       O   -16.77374   -4.90738   -8.33221
      H1   -16.23100   -4.11203   -8.61228
       H   -12.41334   -9.79079   -9.01158
       O   -12.79983   -8.99629   -9.36246
      H1   -12.86003   -8.46765   -8.54617
       H   -18.00208   -7.54223   -8.77664
       O   -17.95057   -8.17296   -8.05238
      H1   -18.40714   -7.73951   -7.33523
       H   -15.09472   -7.88991   -4.83048
       O   -14.38880   -7.25816   -4.98258
      H1   -14.01945   -7.51756   -5.84793
       H   -12.43725   -6.78940   -7.84839
       O   -12.58765   -7.34223   -6.99714
      H1   -11.66827   -7.44680   -6.69338
       H   -11.85414  -10.44607   -4.83394
       O   -11.08889  -10.33801   -4.26591
      H1   -11.43916  -10.01748   -3.45773
       H   -10.55662   -8.87688   -5.47775
       O   -10.39335   -7.96546   -5.78081
      H1    -9.48617   -7.89459   -6.08616
       H   -16.05850   -9.70199   -5.54649
       O   -15.99387   -9.59833   -4.61058
      H1   -16.89410   -9.43771   -4.29280
       H   -11.56494   -4.26694   -3.55591
       O   -11.12828   -4.47874   -2.72655
      H1   -11.69818   -4.07484   -1.99922
       H   -13.06656   -8.46268   -2.60407
       O   -12.75147   -9.31848   -2.25245
      H1   -13.31505  -10.08640   -2.61576
       H   -15.11946  -10.86333   -3.94441
       O   -14.50930  -11.36467   -3.36265
      H1   -15.11460  -11.67527   -2.67077
       H   -13.29298   -6.55715   -3.78885
       O   -12.99944   -6.30197   -2.91930
      H1   -12.35167   -5.65390   -2.95262
       H   -19.91436   -7.11843   -5.33707
       O   -19.28359   -6.91958   -6.00070
      H1   -18.54329   -6.47795   -5.57799
       H   -11.86302  -11.42749   -6.38514
       O   -12.56326  -10.79158   -6.32127
      H1   -13.39457  -11.20081   -6.63532
       H   -14.57173  -13.25402   -7.75858
       O   -14.54567  -12.38776   -7.25351
      H1   -15.28166  -11.82930   -7.51448
       H   -17.20981  -11.18167   -7.33531
       O   -16.55844  -10.44484   -7.39269
      H1   -17.04865   -9.65616   -7.67784
       H   -12.41212   -5.46160   -5.77383
       O   -12.03402   -4.57516   -5.48187
      H1   -11.13093   -4.56685   -5.96983
       H   -13.80119   -5.87807  -11.25039
       O   -14.29464   -5.49469  -10.49582
      H1   -13.65010   -5.37981   -9.77178

