75
frame 4 | Written by MDAnalysis XYZWriter (release 2.4.3)
       H     7.87670    9.26026  -12.55114
       O     8.20807   10.10641  -12.44731
      H1     8.49536   10.06651  -11.50722
       H     3.40273    9.23177  -11.65268
       O     4.31990    9.12971  -11.51931
      H1     4.68057   10.07469  -11.51803
       H     8.52152    8.18568  -16.93128
       O     9.42787    8.51961  -16.89516
      H1     9.54878    9.17938  -17.58699
       H    11.84737    5.75647  -14.46003
       O    12.81371    5.62693  -14.53442
      H1    12.85145    5.24381  -15.41771
       H     4.62171    9.21963  -16.33504
       O     4.73153    8.52355  -16.99797
      H1     4.78776    9.06287  -17.80341
       H     6.30841    3.27641  -12.83440
       O     6.39329    2.61178  -13.54691
      H1     7.22224    2.14066  -13.38500
       H     9.71363    4.39133  -14.31849
       O     9.80750    4.83801  -13.49341
      H1     9.57677    5.72546  -13.65974
       H     8.28798    3.37632  -16.03985
       O     9.05099    3.04454  -15.59384
      H1     8.72164    2.60554  -14.80959
       H     2.56138    7.99562  -17.42405
       O     1.65510    7.76591  -17.77756
      H1     1.04250    7.75085  -17.07217
       H     4.75171    4.63190  -12.55865
       O     4.98876    4.19524  -11.71743
      H1     4.19871    3.95398  -11.19763
       H     7.13894    6.03139   -9.94047
       O     7.24304    5.36898  -10.68531
      H1     6.40080    5.01020  -10.96842
       H     9.96383    8.52494   -9.39436
       O     9.56754    8.31712  -10.25768
      H1     9.53908    7.33958  -10.31127
       H     2.66378    5.64394  -13.44428
       O     1.77192    5.76879  -13.10268
      H1     1.18504    5.12295  -13.55064
       H     7.90419    5.96316  -19.36279
       O     8.62381    5.53572  -18.81597
      H1     9.46779    5.94352  -18.95574
       H    10.31334    2.84542  -11.01179
       O    10.73239    2.97068  -11.88894
      H1    10.25110    3.67463  -12.32468
       H     7.60054    5.04456  -17.44596
       O     7.06406    4.52286  -16.82225
      H1     6.78564    5.18760  -16.16358
       H    11.18788   10.85262  -14.49576
       O    10.33021   11.20043  -14.04472
      H1    10.00782   10.50466  -13.45283
       H     9.62699    7.96598  -15.04133
       O     9.66880    7.59666  -14.13278
      H1    10.56837    7.79600  -13.81440
       H     6.54926   11.41370  -12.55110
       O     5.61495   11.61582  -12.46547
      H1     5.60565   12.57344  -12.22444
       H     5.00547    4.27187  -17.02156
       O     4.11290    4.17879  -16.60702
      H1     3.49101    4.57128  -17.22764
       H     6.20275   10.90773  -15.49870
       O     5.25779   10.76223  -15.26588
      H1     5.14366   10.78292  -14.35543
       H     6.10670    7.43593  -15.87569
       O     6.50657    6.72499  -15.32869
      H1     6.92588    7.17690  -14.61762
       H     6.94107    6.93838  -11.57907
       O     6.60435    7.61239  -12.17056
      H1     5.64608    7.61873  -12.09599
       H     8.88288   10.85113  -15.13957
       O     8.12892   10.92472  -15.74415
      H1     8.32645   10.27713  -16.44297
       H     3.98812    4.75790  -14.87504
       O     4.26139    5.28754  -14.12530
      H1     4.80906    6.00942  -14.48487

