75
frame 5 | Written by MDAnalysis XYZWriter (release 2.4.3)
       H    -6.56101    5.13635  -18.84948
       O    -5.92297    5.65021  -18.26095
      H1    -5.07513    5.26020  -18.39484
       H    -1.61644    6.41166  -14.33489
       O    -2.28656    5.76771  -14.14670
      H1    -2.27305    5.37571  -13.27685
       H    -3.06253    7.73772   -9.98261
       O    -3.86226    7.29940  -10.37621
      H1    -4.12284    7.73242  -11.14502
       H    -5.60368    7.19319  -18.42399
       O    -5.43729    8.09355  -18.69041
      H1    -4.84909    8.66399  -18.15416
       H    -6.92948    7.18340  -14.33181
       O    -6.27090    6.73222  -13.80529
      H1    -5.82998    6.22585  -14.47520
       H    -2.37251    7.41717  -16.87776
       O    -3.04057    7.74777  -16.27289
      H1    -3.19541    8.67931  -16.36543
       H     1.64079    2.76033  -14.72936
       O     0.88694    3.32313  -14.71705
      H1     0.18544    2.92198  -14.15807
       H    -1.32287    9.68164  -13.62257
       O    -1.41082   10.10316  -14.48328
      H1    -2.31136   10.59006  -14.29385
       H    -4.02881    2.15427  -19.54739
       O    -3.31539    1.74816  -19.03518
      H1    -3.28669    2.33652  -18.23902
       H    -4.06512    9.88206  -13.75897
       O    -3.89744   10.84440  -13.71118
      H1    -4.67342   11.21682  -14.16285
       H    -3.26141    6.14136  -19.67631
       O    -3.29580    5.51656  -18.93285
      H1    -3.21054    4.67350  -19.33189
       H     0.03797    1.76499  -13.12004
       O    -0.65615    2.39674  -12.80271
      H1    -1.48576    1.79537  -12.87257
       H    -0.70916    8.59080  -15.14024
       O    -0.40938    7.65219  -15.13419
      H1    -0.27202    7.43832  -14.17271
       H    -5.99252    0.79228  -17.29651
       O    -6.82798    1.24679  -17.62635
      H1    -6.91334    2.03583  -17.05974
       H    -3.76226    3.80762  -11.22212
       O    -3.36450    4.69813  -11.49725
      H1    -3.83614    5.38926  -10.95473
       H    -1.12528    3.62651  -16.88585
       O    -0.18999    3.66508  -17.07459
      H1     0.16291    3.51613  -16.15591
       H    -4.60408    6.09527  -16.14173
       O    -4.58953    5.34642  -15.55638
      H1    -3.81747    5.47078  -15.03829
       H    -6.98034    4.59293  -16.23460
       O    -7.34676    3.82890  -15.78466
      H1    -8.15012    3.52661  -16.31756
       H    -2.76470    0.16844  -16.52411
       O    -3.21070    0.58448  -15.72285
      H1    -2.48022    0.92011  -15.22630
       H    -3.15529    2.55391  -16.04970
       O    -3.03157    3.25851  -16.70900
      H1    -3.60337    3.97061  -16.34018
       H    -1.89440    5.90779  -18.03347
       O    -1.05245    6.28474  -17.75612
      H1    -0.60554    5.58792  -17.25811
       H    -3.43833    7.60238  -14.28253
       O    -3.93175    8.09135  -13.58408
      H1    -4.81775    7.68257  -13.52201
       H    -1.96171    8.21327  -12.66704
       O    -1.05033    8.08337  -12.41842
      H1    -1.05221    8.05941  -11.49076
       H    -7.66395    2.78789  -12.30021
       O    -6.88056    2.23610  -12.50211
      H1    -6.70520    2.28733  -13.43840
       H    -8.29209    4.83199  -14.30277
       O    -8.64813    5.16385  -13.45609
      H1    -8.03244    5.77304  -13.01771

