75
frame 5 | Written by MDAnalysis XYZWriter (release 2.4.3)
       H    17.59816  -12.31484   -5.43548
       O    16.65674  -12.11775   -5.42254
      H1    16.67436  -11.13648   -5.44563
       H    18.31455  -16.14408   -9.49433
       O    19.30151  -16.13213   -9.39477
      H1    19.61934  -16.96282   -9.77129
       H    16.74749  -18.36373  -12.44636
       O    17.56752  -18.24779  -12.89334
      H1    17.68586  -17.37152  -13.31658
       H    18.60440   -9.56777   -7.55016
       O    18.18919  -10.20227   -6.92230
      H1    18.04941   -9.67510   -6.15390
       H    16.94219  -14.11451  -15.84447
       O    16.02321  -14.36480  -15.63168
      H1    16.14234  -15.01910  -14.91293
       H    15.02870  -15.86334   -5.87571
       O    15.10167  -16.70531   -5.44291
      H1    15.62491  -17.35641   -5.93205
       H    17.86666  -11.56144  -14.80880
       O    18.44010  -12.03820  -14.15250
      H1    18.74610  -12.84727  -14.56306
       H    12.68732  -11.51228   -9.86189
       O    12.99851  -11.14830   -9.08226
      H1    13.96679  -11.21888   -9.05158
       H    19.01773  -15.83198  -14.47234
       O    18.19647  -15.78012  -13.99077
      H1    18.08379  -14.88604  -13.65436
       H    14.10316  -13.11137  -12.05434
       O    14.53188  -12.94476  -11.23978
      H1    15.47693  -12.93007  -11.41888
       H    14.40341  -13.60775   -5.55501
       O    14.87418  -13.77842   -6.39302
      H1    15.38995  -12.99117   -6.54794
       H    19.37275  -13.10642   -9.46217
       O    19.24986  -13.66492  -10.32193
      H1    19.42175  -14.56054   -9.92541
       H    14.06878  -14.22591   -7.78748
       O    13.35873  -14.47656   -8.54034
      H1    13.68271  -14.23158   -9.40200
       H    15.99774  -16.15497  -10.15060
       O    16.54000  -15.68332   -9.54588
      H1    16.14643  -14.88042   -9.24371
       H    15.73833   -8.29398  -10.44129
       O    14.93654   -7.85333  -10.67318
      H1    14.37175   -7.91425   -9.87271
       H    19.81414  -13.34626   -4.50140
       O    19.02290  -12.76712   -4.25171
      H1    18.50644  -13.25619   -3.59482
       H    18.14546   -7.00354   -8.65228
       O    17.95604   -7.87196   -9.14064
      H1    18.41281   -7.70274   -9.97373
       H    19.24131   -9.13844  -12.65752
       O    18.54721   -8.41381  -12.62055
      H1    17.75214   -8.69888  -12.20140
       H    19.17879  -11.98732   -7.36288
       O    19.72661  -12.44303   -8.06386
      H1    19.99220  -13.21329   -7.56718
       H    16.32786  -10.68415   -8.17888
       O    15.61909  -11.06803   -8.78342
      H1    15.90498  -10.68067   -9.66311
       H    17.85015  -12.95663  -11.16846
       O    17.23787  -12.61243  -11.85437
      H1    17.74258  -12.44596  -12.67413
       H    14.80931  -16.28491  -12.25037
       O    14.86998  -16.87026  -11.46254
      H1    14.41516  -17.72720  -11.65815
       H    17.03966  -10.83609  -11.40844
       O    16.63482   -9.94675  -11.34917
      H1    15.78506  -10.02463  -11.81787
       H    16.66146  -18.96561   -7.43964
       O    16.35750  -18.85309   -6.53644
      H1    15.57472  -19.34701   -6.48219
       H    18.84370  -18.49244  -11.68174
       O    19.42383  -18.50904  -10.85413
      H1    18.75203  -18.70539  -10.15376

