75
frame 5 | Written by MDAnalysis XYZWriter (release 2.4.3)
       H    -4.67474  -16.46298   10.41023
       O    -4.82800  -16.37787    9.42814
      H1    -4.45210  -17.26004    9.06104
       H    -1.11600  -18.52255   16.75406
       O    -0.78231  -19.41513   16.61185
      H1     0.01815  -19.47470   17.12198
       H    -5.92258  -17.50019   12.68083
       O    -5.18441  -16.89800   12.50679
      H1    -4.42201  -17.19111   13.03578
       H    -6.03615  -16.86122   17.29486
       O    -5.54872  -17.51443   16.83699
      H1    -6.10608  -17.77700   16.10835
       H     2.53926  -20.11453   13.95280
       O     2.32123  -19.15560   14.14895
      H1     2.87831  -18.90117   14.84686
       H    -6.06058  -19.48381   14.68279
       O    -6.74722  -18.77297   14.58416
      H1    -7.51108  -19.18994   14.18420
       H    -3.14265  -15.50973   15.61886
       O    -3.11104  -16.29266   16.13026
      H1    -3.98229  -16.54948   16.43060
       H    -0.90500  -16.66540   18.71604
       O    -1.65216  -17.13457   18.42798
      H1    -2.10346  -16.69320   17.70599
       H     0.01163  -18.63315    9.07570
       O    -0.81758  -18.14318    9.34935
      H1    -0.56724  -17.22695    9.47645
       H     4.47471  -19.79935   16.01709
       O     4.44521  -18.84073   16.08364
      H1     4.80780  -18.63974   16.98352
       H    -5.47395  -18.90885   17.79773
       O    -5.70439  -19.70074   18.33339
      H1    -4.89161  -20.21985   18.46584
       H    -3.64480  -18.76206    7.50766
       O    -3.48083  -18.62211    8.46065
      H1    -2.57126  -18.39849    8.57852
       H     1.44531  -16.35308   19.99186
       O     0.68135  -16.23760   19.37996
      H1     1.18755  -16.27683   18.55318
       H     2.86095  -18.55935   12.35997
       O     3.46288  -18.10513   11.82358
      H1     3.30597  -18.48256   10.96655
       H    -3.12036  -14.63371   13.17872
       O    -2.30400  -15.12508   13.14286
      H1    -2.36179  -15.43593   12.23226
       H     0.67955  -13.92094   14.79092
       O     0.38229  -14.85975   14.84091
      H1    -0.34093  -14.91054   14.16962
       H     1.64099  -17.36207   16.79146
       O     1.79435  -16.39837   16.78740
      H1     1.19305  -15.96215   16.11024
       H     2.36595  -16.11423    9.05076
       O     1.60584  -15.76707    9.60202
      H1     1.90023  -15.44909   10.46774
       H     3.61707  -15.40049   16.02718
       O     4.27809  -14.84132   15.60105
      H1     4.32567  -15.05934   14.64587
       H    -2.70897  -17.38097   14.68043
       O    -3.01728  -18.12625   14.13627
      H1    -2.23470  -18.63002   13.91995
       H     1.44780  -19.48561   18.42659
       O     1.62929  -19.14012   17.54194
      H1     2.38977  -19.67501   17.21704
       H     0.25878  -18.90553   13.95633
       O    -0.57563  -19.37348   14.02974
      H1    -0.65389  -19.52845   15.03045
       H     6.31322  -19.22054   12.76188
       O     5.90924  -19.23630   11.87218
      H1     5.03161  -18.84709   11.92125
       H     5.31601  -15.17591   12.45072
       O     5.01474  -15.79063   13.06907
      H1     4.37193  -16.41278   12.74150
       H     0.03807  -15.10405   10.20716
       O    -0.83816  -14.92398   10.52103
      H1    -0.63938  -14.16527   11.10608

