75
frame 5 | Written by MDAnalysis XYZWriter (release 2.4.3)
       H   -15.60916   12.68878   17.95494
       O   -15.87626   11.75256   17.72468
      H1   -15.30321   11.21602   18.32816
       H   -16.04002   13.53170   11.64581
       O   -15.95402   12.61529   11.35846
      H1   -16.19391   12.64215   10.44383
       H   -14.64752   12.13963   16.33673
       O   -14.24254   12.73627   15.73681
      H1   -14.29079   13.68590   15.96823
       H   -13.23697   15.51076   16.90394
       O   -13.88878   15.59144   16.14417
      H1   -14.33007   16.46942   16.18491
       H   -17.61510   16.52534    9.86335
       O   -18.32485   17.16636   10.03812
      H1   -18.91182   16.93425    9.32763
       H   -15.35870   18.23935   16.94114
       O   -14.99882   18.25183   16.04258
      H1   -14.14995   18.76939   16.08377
       H   -11.19189   10.72295   17.47764
       O   -12.04344   11.17736   17.54626
      H1   -12.28225   11.41074   16.61967
       H   -15.43504   10.67991   14.53826
       O   -14.96044    9.87008   14.50689
      H1   -15.49480    9.23024   14.95812
       H   -11.63566   15.21624   14.08905
       O   -12.13651   16.07647   14.10760
      H1   -12.74570   15.94525   14.82394
       H   -17.58565    8.84343   15.21653
       O   -17.72178    9.81582   15.05966
      H1   -18.29958   10.13900   15.78739
       H   -14.27988   10.25438   12.70897
       O   -13.98696   10.65352   11.85164
      H1   -14.62873   11.30600   11.50647
       H   -16.40155   13.53695   14.83274
       O   -17.32551   13.47186   14.45799
      H1   -17.26097   12.77052   13.79897
       H   -12.81781   13.43117   12.14748
       O   -12.73186   14.13311   11.47074
      H1   -12.76354   13.63635   10.63701
       H   -12.53496   13.14140   17.53374
       O   -12.44462   14.02953   17.91209
      H1   -11.48674   14.11404   17.90792
       H   -17.52920   15.15034   16.47030
       O   -17.59384   15.91283   17.03212
      H1   -18.23952   16.43703   16.59925
       H   -19.92321    8.38184   13.96030
       O   -19.55778    9.01120   13.34838
      H1   -18.79360    9.35963   13.86258
       H   -19.03289   13.81892    9.20306
       O   -18.84320   13.60996    8.25266
      H1   -19.18307   14.27926    7.68678
       H   -14.39541   15.14515   11.70039
       O   -15.36170   15.29435   11.86125
      H1   -15.47645   16.14068   12.38795
       H   -17.99162   15.09570   13.64088
       O   -18.54082   15.52786   12.96065
      H1   -18.68076   16.52525   13.02277
       H   -17.82386   10.69854   17.52006
       O   -18.74032   10.46671   17.35271
      H1   -19.15941   11.33347   17.31411
       H   -14.78780   15.10958   18.71819
       O   -15.63166   14.63241   18.54225
      H1   -16.05150   15.37790   18.09643
       H   -16.27986   14.58725    9.08835
       O   -16.27502   15.49575    9.34717
      H1   -15.94379   15.63497   10.26095
       H   -18.73152   18.04759   11.77456
       O   -18.72001   18.13227   12.77503
      H1   -17.86350   18.52719   13.07732
       H   -19.55799   13.19368   11.19934
       O   -19.56023   13.97994   10.65400
      H1   -18.99557   14.61254   11.16043
       H   -17.26655   13.27925    8.49698
       O   -16.39802   12.87757    8.61154
      H1   -15.97451   13.17714    7.74728

