75
frame 4 | Written by MDAnalysis XYZWriter (release 2.4.3)
       H   -17.77392    6.38105    9.06358
       O   -17.43428    6.29810   10.01087
      H1   -18.16189    6.42438   10.63120
       H   -16.56083    4.65868    7.37765
       O   -16.40932    3.74403    7.69560
      H1   -15.93800    3.82718    8.55918
       H   -13.22764    3.90038   12.37842
       O   -12.87646    3.19905   11.84101
      H1   -12.51764    2.60819   12.50772
       H   -17.97573    2.96078    7.56199
       O   -18.76535    2.44111    7.40260
      H1   -19.48764    2.77519    7.91181
       H   -13.95667   -0.68782   14.88599
       O   -13.18199   -0.93147   14.46374
      H1   -13.36092   -1.50716   13.70523
       H   -15.97525    5.32384   10.43342
       O   -15.26363    4.69795   10.29414
      H1   -15.48518    3.87925   10.74569
       H   -13.95185    4.87484   14.50971
       O   -13.57952    5.18976   13.59393
      H1   -13.01010    5.90006   13.87280
       H   -16.21501    7.77554   10.25555
       O   -15.40171    8.19406    9.90765
      H1   -15.04953    8.67891   10.66060
       H   -18.69963    6.01049   15.62722
       O   -17.88467    5.46841   15.67254
      H1   -17.93186    5.04830   14.77333
       H   -16.68972   -1.88353   12.56400
       O   -17.15099   -1.11083   12.23995
      H1   -18.01458   -1.44106   11.96573
       H   -17.67380    2.85174   14.10031
       O   -17.93115    3.59687   13.55025
      H1   -17.31545    3.53432   12.75315
       H   -16.78168    6.60092   15.60966
       O   -16.14198    7.29731   15.35741
      H1   -15.98056    7.04993   14.45238
       H   -15.70588    1.51052   11.15825
       O   -16.33638    2.24982   11.20043
      H1   -17.11812    1.95113   10.77813
       H   -18.39200    0.90989    8.54059
       O   -18.04367    0.51661    9.34358
      H1   -17.45676   -0.20415    8.96820
       H   -13.47703    2.14867   10.30350
       O   -13.30581    1.49817    9.60132
      H1   -14.09957    0.93487    9.66453
       H   -17.11183   -0.67975   13.86226
       O   -16.81118   -0.59510   14.81046
      H1   -16.98207   -1.47704   15.20836
       H   -14.23269    3.06131   17.82605
       O   -14.78749    2.29570   17.44734
      H1   -14.79098    1.49159   18.01401
       H   -14.72394    7.08797   16.48684
       O   -14.01298    6.85173   17.14355
      H1   -13.47972    6.13021   16.76971
       H   -15.03856    7.19417   11.66524
       O   -15.29657    7.00035   12.57062
      H1   -14.77109    6.26551   12.87080
       H   -14.49215   -0.93637   11.17642
       O   -15.11036   -0.35750   10.68447
      H1   -15.93583   -0.54543   11.17302
       H   -16.22750    4.62481   15.79274
       O   -15.27778    4.37017   15.74366
      H1   -15.23378    3.56748   16.21582
       H   -18.41172    2.95507   18.22341
       O   -17.76019    2.26229   18.20181
      H1   -16.87012    2.77053   18.26042
       H   -17.72580    1.84564   16.48942
       O   -17.92056    1.76990   15.53359
      H1   -17.48561    0.91211   15.30279
       H   -14.50408    7.06279    8.63491
       O   -14.01251    6.33775    8.17281
      H1   -14.11018    5.55227    8.78060
       H   -19.63124    5.30317   18.13848
       O   -18.91446    4.68226   17.99278
      H1   -18.52345    4.88293   17.10618

