75
frame 5 | Written by MDAnalysis XYZWriter (release 2.4.3)
       H   -15.59050   12.22934    2.50012
       O   -16.30033   12.63045    2.96547
      H1   -16.53094   13.40279    2.37749
       H   -12.07295   10.56611    3.74006
       O   -12.59676   11.36163    3.60217
      H1   -13.03589   11.28629    2.72906
       H   -17.56461   11.75105    1.41614
       O   -18.13266   11.51827    0.65253
      H1   -17.70506   11.96775   -0.09449
       H   -18.93403   11.09601    6.30202
       O   -19.34413   11.15127    7.19824
      H1   -19.15036   11.99227    7.61274
       H   -17.03827   17.69009    5.77177
       O   -17.22970   18.65586    5.90938
      H1   -17.28360   18.66265    6.90892
       H   -13.91384   16.04524   -1.14577
       O   -14.56516   15.30040   -1.16608
      H1   -14.97261   15.25511   -2.06023
       H   -18.55128   17.16833    1.84317
       O   -18.41797   18.05520    1.62092
      H1   -19.27849   18.45706    1.83997
       H   -15.65296   16.34392    6.34077
       O   -16.38588   16.26161    5.73109
      H1   -16.10401   16.40619    4.79341
       H   -16.44584   14.70085    0.57902
       O   -16.78731   14.78879    1.45657
      H1   -17.72338   14.64391    1.26923
       H   -17.46155   18.46218    0.15058
       O   -17.11438   18.82824   -0.70168
      H1   -16.20481   18.84049   -0.49987
       H   -13.55639   12.20860    0.87921
       O   -14.03830   11.49906    1.32673
      H1   -14.08375   10.67136    0.85007
       H   -15.25423   12.40659   -1.59364
       O   -14.35943   12.14689   -1.86061
      H1   -13.80567   12.44899   -1.09420
       H   -16.76422   17.59808    2.86038
       O   -15.82612   17.38651    2.96807
      H1   -15.68037   16.62543    2.36185
       H   -17.80705   11.45223    4.16146
       O   -18.40246   10.89313    4.67677
      H1   -18.77098   10.18026    4.15175
       H   -17.36090   13.51306   -1.61161
       O   -17.01408   12.60717   -1.77905
      H1   -17.42990   12.31480   -2.66324
       H   -11.28758   12.45148    4.14321
       O   -10.68984   13.09448    4.51053
      H1   -10.04953   12.82762    5.19967
       H   -11.80049   13.56727   -0.22232
       O   -12.72153   13.45550    0.01012
      H1   -13.29477   14.08185   -0.44268
       H   -16.27827   13.67275    5.79307
       O   -15.42151   13.48407    6.19975
      H1   -15.28527   12.56502    6.02908
       H   -15.06731    8.01853    5.05528
       O   -15.67380    8.55383    4.48624
      H1   -15.54556    8.05516    3.66095
       H   -15.17745   10.19772    5.21412
       O   -14.52778   10.83343    5.52041
      H1   -13.95502   11.04741    4.75999
       H   -12.44838   14.42773    4.84076
       O   -12.78356   15.28278    5.09614
      H1   -13.65524   14.95658    5.47177
       H   -18.29440   15.81746    6.06961
       O   -19.20151   15.52692    6.09114
      H1   -19.58102   15.94868    6.85662
       H   -17.46916   15.94502   -1.01817
       O   -17.84626   15.09446   -1.27890
      H1   -18.68292   15.01976   -0.81183
       H   -17.67861    8.41440   -0.83951
       O   -16.86736    8.80002   -0.40008
      H1   -17.15199    9.61559   -0.02107
       H   -17.26655   13.27925    8.49698
       O   -16.39802   12.87757    8.61154
      H1   -15.97451   13.17714    7.74728

