75
frame 4 | Written by MDAnalysis XYZWriter (release 2.4.3)
       H    -9.55009  -19.12126   -6.92197
       O    -9.64425  -19.00061   -5.96825
      H1   -10.57451  -19.08318   -5.76310
       H   -10.65615  -16.51821   -3.79895
       O    -9.89102  -16.02266   -4.12713
      H1    -9.17174  -16.61562   -4.30465
       H   -14.12012  -18.27179   -8.19797
       O   -14.95450  -18.42805   -7.81508
      H1   -15.54378  -17.67664   -8.00905
       H   -17.40387  -15.80178   -7.43152
       O   -16.66721  -16.32238   -7.73525
      H1   -16.42502  -16.03159   -8.60025
       H   -17.67256  -15.22444   -4.03554
       O   -18.59984  -15.18393   -4.11454
      H1   -18.85474  -16.12306   -4.01190
       H   -16.07071  -17.83229   -0.24478
       O   -15.69478  -17.02756    0.15987
      H1   -15.20831  -17.25417    0.91017
       H    -9.75629  -19.05798   -0.84039
       O    -9.72905  -18.72520   -1.77827
      H1   -10.53219  -18.31234   -1.93864
       H   -18.43295  -19.27479   -7.30001
       O   -18.57028  -18.46285   -7.86494
      H1   -17.89728  -17.84517   -7.49740
       H   -19.50147  -13.37774   -1.54592
       O   -18.64994  -13.86331   -1.59475
      H1   -18.75100  -14.33321   -2.43848
       H   -18.08912  -15.18157   -0.56314
       O   -18.11868  -15.95090    0.03294
      H1   -17.21689  -16.15098    0.24976
       H   -19.74107  -14.99022   -7.14472
       O   -18.85227  -14.77930   -6.86450
      H1   -18.77631  -14.99868   -5.92469
       H   -12.64285  -18.78064  -10.94382
       O   -13.56333  -18.41003  -10.90576
      H1   -13.62188  -17.76744  -11.60981
       H   -19.07073  -18.75694  -10.94159
       O   -18.24201  -18.31982  -10.78349
      H1   -18.22688  -18.46068   -9.76982
       H   -18.27994  -17.61734   -0.86599
       O   -17.97029  -18.41423   -1.39452
      H1   -18.06422  -19.19856   -0.78495
       H   -13.75682  -12.91985   -3.95050
       O   -13.10212  -13.62033   -4.24967
      H1   -12.35743  -13.12713   -4.66739
       H   -13.03990  -14.37249   -0.77913
       O   -12.81822  -14.04325    0.17565
      H1   -13.61960  -13.59457    0.44381
       H   -11.68260  -15.24337   -6.57274
       O   -10.72651  -15.28931   -6.63967
      H1   -10.44451  -15.61141   -5.78160
       H   -15.59607  -19.26062   -4.76351
       O   -15.28983  -18.30565   -5.04462
      H1   -15.42117  -18.20019   -6.01375
       H   -14.57173  -13.25402   -7.75858
       O   -14.54567  -12.38776   -7.25351
      H1   -15.28166  -11.82930   -7.51448
       H   -12.39465  -17.71440   -2.00800
       O   -11.93249  -17.33904   -2.76191
      H1   -12.29245  -17.77318   -3.51874
       H   -15.33757  -15.83700   -3.00237
       O   -16.01249  -16.06661   -3.63815
      H1   -15.72898  -16.83332   -4.08127
       H   -12.91048  -15.29327   -9.77213
       O   -13.67594  -15.13228   -9.18368
      H1   -13.59800  -15.42465   -8.29213
       H   -13.34462  -14.55237   -3.00664
       O   -13.65583  -15.09014   -2.24004
      H1   -13.03055  -15.80245   -2.15145
       H   -12.59712  -17.50276    0.20145
       O   -13.18922  -17.86634   -0.52390
      H1   -14.06590  -17.40884   -0.41728
       H   -14.54513  -15.87983   -5.83178
       O   -13.97539  -15.40372   -6.42397
      H1   -14.01133  -14.65395   -5.84444

