75
frame 4 | Written by MDAnalysis XYZWriter (release 2.4.3)
       H     7.62356   12.54149   -2.20755
       O     6.71478   12.23262   -2.22768
      H1     6.81028   11.42663   -2.73000
       H     7.49327   10.31920    3.42533
       O     8.23870   10.62550    2.83969
      H1     7.91250   11.27871    2.25016
       H     7.08246   12.82349   -7.41364
       O     7.60605   12.69739   -6.60061
      H1     7.70406   11.75592   -6.49811
       H     7.90231    9.35820   -5.91460
       O     7.37925   10.09021   -5.64076
      H1     6.47994   10.02860   -6.03826
       H     7.74876    9.90198   -2.26984
       O     7.82440    9.35677   -3.01341
      H1     7.34052    9.79803   -3.70608
       H     9.11419   10.12385   -0.10486
       O     8.25447   10.39743   -0.37307
      H1     8.09819   11.16391    0.19326
       H     5.58687   14.45170   -3.54779
       O     5.86954   15.21813   -3.05201
      H1     5.97985   15.89068   -3.72262
       H     2.62483   16.93043   -2.38890
       O     2.95255   16.11499   -2.77064
      H1     3.88953   15.99953   -2.50729
       H     4.74619   14.21452    1.75305
       O     4.46197   14.65324    0.95996
      H1     4.24879   15.52457    1.17357
       H    11.78688   10.76150   -2.24263
       O    12.03054    9.86855   -2.58633
      H1    11.44534    9.53578   -3.24663
       H     7.41065   15.29561   -0.95179
       O     8.19740   14.82744   -0.62625
      H1     8.73943   15.33280   -0.03596
       H     5.31159    8.04973    0.12069
       O     5.99195    8.45735    0.64745
      H1     6.06970    9.38748    0.43268
       H     3.31583   10.56152   -4.30607
       O     3.69692   10.09867   -3.58731
      H1     2.99682    9.83683   -3.01489
       H     4.21859   12.69966   -3.73977
       O     5.06482   12.84511   -4.21372
      H1     5.75238   12.59780   -3.59837
       H    11.28312   16.34224   -2.50754
       O    11.47692   16.73037   -1.61752
      H1    10.67716   16.56828   -1.10089
       H    10.78902   16.26445   -4.70107
       O    10.99005   15.51112   -4.19461
      H1    10.18593   15.03468   -4.00683
       H     9.76487   13.28178   -2.49638
       O     9.07161   13.74718   -2.98305
      H1     8.71481   14.27806   -2.29150
       H     4.59845    7.32976   -5.08569
       O     5.16223    7.89211   -4.60370
      H1     4.66727    8.72438   -4.30335
       H     4.53944   13.24687   -6.16184
       O     4.23426   13.17548   -7.06029
      H1     5.01479   13.07331   -7.63628
       H     7.04483    7.80669   -2.38033
       O     6.48267    7.02333   -2.45409
      H1     6.09301    7.15521   -3.29162
       H    11.72129   12.52096   -0.59264
       O    11.72123   12.59616   -1.55000
      H1    12.42754   13.23856   -1.68776
       H     8.58410   12.81206    1.36915
       O     7.73423   12.58527    1.01641
      H1     7.50052   13.32613    0.39518
       H     4.26690   13.41352   -0.60904
       O     3.97565   12.77277   -1.28146
      H1     4.79686   12.48366   -1.71150
       H    10.33144    7.60437   -3.60393
       O    10.28462    8.51581   -3.91311
      H1     9.47545    8.78721   -3.56452
       H     5.68003   12.60918    1.96296
       O     5.12086   12.57962    2.77059
      H1     4.28669   12.27633    2.39480

