75
frame 4 | Written by MDAnalysis XYZWriter (release 2.4.3)
       H     6.43184   -8.19608  -12.51589
       O     6.10103   -9.01277  -12.24093
      H1     6.90208   -9.47939  -11.91278
       H     6.54182   -5.99464  -13.05240
       O     7.22102   -6.64093  -12.78947
      H1     7.95940   -6.11485  -12.39425
       H    10.30287   -8.62408  -16.09478
       O    10.36159   -8.88181  -17.00744
      H1    10.26423   -8.01640  -17.45774
       H    10.83076   -9.53974  -11.30469
       O    10.27676   -8.75563  -11.35652
      H1    10.90959   -8.09001  -11.75125
       H     6.33011  -10.42300   -9.17424
       O     6.72220   -9.56028   -8.98931
      H1     6.23971   -8.81322   -9.34086
       H     6.77957  -13.51183  -12.15187
       O     5.98438  -13.15903  -12.59432
      H1     6.17927  -12.22555  -12.49371
       H     5.10886  -12.18151  -14.93450
       O     5.28947  -12.80671  -15.64296
      H1     5.46200  -13.58586  -15.11643
       H     8.57345  -10.34426  -13.47489
       O     9.00611  -10.05890  -14.30945
      H1     8.36710  -10.05811  -14.96753
       H     5.72525  -12.67632   -9.05894
       O     6.58044  -12.66306   -8.57635
      H1     6.43545  -11.97267   -7.84410
       H    11.51033  -12.19768   -8.74916
       O    10.61629  -12.41284   -9.04634
      H1    10.56804  -13.36623   -9.00576
       H     8.57625  -11.73138   -6.49850
       O     9.41333  -12.17689   -6.58151
      H1     9.56534  -12.07497   -7.55687
       H    10.70092  -15.46851  -10.36821
       O     9.82614  -15.15599  -10.12949
      H1     9.23368  -15.91687  -10.19638
       H     5.07486  -10.02132  -13.42215
       O     4.55924  -10.61440  -13.98762
      H1     3.88712  -10.96650  -13.35148
       H     6.75433   -8.86640  -16.71014
       O     7.61437   -9.31663  -16.57036
      H1     8.31168   -8.87675  -17.04682
       H    11.31117  -11.59959  -10.62967
       O    11.79503  -11.13857  -11.31548
      H1    11.86745  -11.83968  -12.00660
       H     6.34637  -10.37785   -5.95678
       O     7.00059  -10.74257   -6.52302
      H1     7.15595  -10.09825   -7.32244
       H    12.68689   -6.66396  -12.80166
       O    12.21737   -7.43938  -13.08030
      H1    12.97268   -8.08340  -13.22947
       H    10.56681  -14.64423  -14.18481
       O    10.22709  -15.51564  -14.51198
      H1    10.20759  -15.41231  -15.50635
       H    10.38299   -7.50700  -13.92031
       O     9.81001   -7.22299  -14.68033
      H1     8.95702   -7.59273  -14.40127
       H    12.02200  -14.33028  -12.07825
       O    11.42574  -13.67308  -12.45196
      H1    11.85838  -13.22458  -13.18661
       H     9.22897  -13.46315  -12.41221
       O     8.62074  -13.35641  -11.67105
      H1     9.12252  -13.73136  -10.91116
       H     9.33690   -7.20145   -8.74866
       O     8.64698   -7.65674   -8.27224
      H1     8.37054   -8.43467   -8.84896
       H    10.40900  -10.85000  -14.98232
       O    10.96920  -11.42043  -15.51869
      H1    10.75522  -11.13966  -16.38533
       H     8.93732  -10.13732  -11.70079
       O     8.26018  -10.75794  -11.96413
      H1     8.52651  -11.64789  -11.74583
       H     5.15022   -6.66425  -10.12767
       O     5.02572   -7.63466  -10.03408
      H1     5.37113   -7.97727  -10.91909

