75
frame 5 | Written by MDAnalysis XYZWriter (release 2.4.3)
       H    17.59816  -12.31484   -5.43548
       O    16.65674  -12.11775   -5.42254
      H1    16.67436  -11.13648   -5.44563
       H    18.31455  -16.14408   -9.49433
       O    19.30151  -16.13213   -9.39477
      H1    19.61934  -16.96282   -9.77129
       H    19.63539  -17.78254   -2.84511
       O    19.17351  -17.17814   -3.50964
      H1    18.35503  -16.91589   -3.12482
       H    16.74749  -18.36373  -12.44636
       O    17.56752  -18.24779  -12.89334
      H1    17.68586  -17.37152  -13.31658
       H    12.24008  -14.87250   -2.08655
       O    12.19579  -15.17384   -3.01578
      H1    12.88376  -15.78951   -3.10326
       H    13.63322  -17.54370   -4.92599
       O    12.84465  -17.68984   -4.33806
      H1    12.10133  -17.26865   -4.85764
       H    15.02870  -15.86334   -5.87571
       O    15.10167  -16.70531   -5.44291
      H1    15.62491  -17.35641   -5.93205
       H    13.95068  -16.78746  -14.85092
       O    14.73277  -16.95201  -14.35358
      H1    14.55999  -17.87548  -14.01532
       H    13.81066  -17.52683   -2.49822
       O    14.09682  -17.01760   -1.73760
      H1    14.09320  -17.70655   -1.04997
       H    18.15540  -19.32976   -5.75657
       O    18.97544  -19.39221   -5.25037
      H1    18.90423  -18.68172   -4.55097
       H    12.30461  -20.31627   -8.49901
       O    12.93215  -19.67823   -8.79328
      H1    12.85802  -18.92782   -8.17159
       H    13.22309  -19.26887  -10.66808
       O    13.56144  -19.24072  -11.56871
      H1    12.82921  -19.41762  -12.19940
       H    12.77754  -16.20587   -7.81684
       O    12.25819  -16.94662   -7.50505
      H1    11.52492  -16.57160   -6.99959
       H    17.10011  -14.73272   -2.65255
       O    17.44644  -13.83446   -2.33485
      H1    16.79143  -13.15994   -2.59740
       H    14.40341  -13.60775   -5.55501
       O    14.87418  -13.77842   -6.39302
      H1    15.38995  -12.99117   -6.54794
       H    19.37275  -13.10642   -9.46217
       O    19.24986  -13.66492  -10.32193
      H1    19.42175  -14.56054   -9.92541
       H    14.06878  -14.22591   -7.78748
       O    13.35873  -14.47656   -8.54034
      H1    13.68271  -14.23158   -9.40200
       H    15.99774  -16.15497  -10.15060
       O    16.54000  -15.68332   -9.54588
      H1    16.14643  -14.88042   -9.24371
       H    19.17879  -11.98732   -7.36288
       O    19.72661  -12.44303   -8.06386
      H1    19.99220  -13.21329   -7.56718
       H    14.80931  -16.28491  -12.25037
       O    14.86998  -16.87026  -11.46254
      H1    14.41516  -17.72720  -11.65815
       H    16.05972  -16.23110   -3.97764
       O    16.63084  -16.24813   -3.18757
      H1    15.96814  -16.58359   -2.51717
       H    16.48459  -19.09262   -2.01752
       O    17.43322  -19.01809   -1.87269
      H1    17.82917  -19.75338   -2.39305
       H    16.66146  -18.96561   -7.43964
       O    16.35750  -18.85309   -6.53644
      H1    15.57472  -19.34701   -6.48219
       H    18.84370  -18.49244  -11.68174
       O    19.42383  -18.50904  -10.85413
      H1    18.75203  -18.70539  -10.15376
       H    12.76535  -16.08697   -9.73413
       O    12.36469  -16.24869  -10.60024
      H1    13.12876  -16.31547  -11.15551

