75
frame 5 | Written by MDAnalysis XYZWriter (release 2.4.3)
       H    -6.46791    4.37914   11.03887
       O    -5.97868    4.85739   11.78088
      H1    -5.48213    4.16175   12.18589
       H    -7.97774    0.84354   11.77426
       O    -8.01257   -0.16937   11.78654
      H1    -7.14741   -0.41925   12.15129
       H   -10.74008    6.66317   12.92568
       O   -11.45094    6.59589   13.63927
      H1   -11.63263    7.45306   14.03509
       H   -13.37202    3.56533   12.79918
       O   -12.93242    2.88202   12.33256
      H1   -12.25074    2.41710   12.82788
       H   -10.22919    8.07076    9.59077
       O   -10.67234    7.49200    8.93680
      H1   -11.64794    7.61879    9.07853
       H    -9.02635    3.59866    6.51941
       O    -8.31353    3.51947    5.80253
      H1    -7.85921    2.75792    6.12314
       H   -10.16202    4.27388    7.58548
       O   -10.01822    3.57334    8.25853
      H1    -9.10946    3.66075    8.58116
       H    -8.65266    3.80168   11.24565
       O    -8.90310    3.05286   11.84264
      H1    -9.63420    2.69099   11.32154
       H    -8.02651    1.25195   14.27009
       O    -7.41368    2.06679   14.17656
      H1    -7.98498    2.77290   13.79326
       H    -8.92444    5.91719   12.55116
       O    -9.34429    6.49323   11.92204
      H1    -9.94146    5.80737   11.55545
       H   -13.48181    2.02807   10.77167
       O   -13.56341    1.53106    9.90530
      H1   -13.49242    0.63691   10.13273
       H   -10.59358    6.31732    7.43035
       O   -10.64367    5.80970    6.61005
      H1   -11.64605    5.77902    6.47560
       H    -7.59578    5.29117    9.40612
       O    -7.50867    4.33468    9.45921
      H1    -6.87075    4.05344    8.83654
       H   -11.00874    1.83862    7.76709
       O   -11.22439    1.08554    7.17706
      H1   -12.02190    0.74146    7.56415
       H    -9.32181    7.99965   16.30158
       O    -9.12425    7.13198   15.93619
      H1    -9.81983    6.88175   15.30911
       H   -11.01426    3.95782    9.73833
       O   -11.25742    4.46869   10.54249
      H1   -11.97237    3.97834   10.92004
       H    -7.46001    6.08066   14.15922
       O    -7.78772    5.27373   13.76262
      H1    -7.15006    5.10395   13.04474
       H    -7.95725    6.94919   10.61715
       O    -7.50774    7.00909    9.77154
      H1    -6.63971    7.24427   10.00661
       H    -8.57016   -0.45954   13.42260
       O    -8.93582   -0.24977   14.28310
      H1    -9.79639    0.14405   14.11870
       H    -9.52901   -1.88951   11.17236
       O   -10.42729   -1.74106   10.78961
      H1   -10.48290   -0.83102   10.46286
       H   -11.68366    1.81544   10.46934
       O   -10.83389    1.34252   10.70877
      H1   -10.86024    1.04680   11.61435
       H    -8.20103   -0.78128    8.56546
       O    -7.44737   -0.51058    9.08738
      H1    -7.73977   -0.38216   10.03777
       H    -4.39658    1.98806   13.05040
       O    -5.09294    2.26103   12.52817
      H1    -5.89633    2.04457   13.08540
       H    -5.73077    0.71321    9.46325
       O    -4.94716    1.27304    9.39915
      H1    -4.62346    1.34478   10.29774
       H   -11.43447    1.32533   14.34503
       O   -11.31839    0.92162   13.43543
      H1   -12.16421    0.49846   13.38411

