75
frame 6 | Written by MDAnalysis XYZWriter (release 2.4.3)
       H   -11.80483   -7.95168   16.98574
       O   -12.72833   -8.14949   17.05842
      H1   -12.94744   -7.78359   17.92086
       H   -16.84513   -4.59564   13.66540
       O   -16.01418   -4.06392   13.61411
      H1   -15.88141   -3.60982   14.44235
       H   -12.42369    1.41045   18.42218
       O   -11.54630    1.58352   18.07498
      H1   -10.86301    1.20258   18.58379
       H   -13.83418   -2.20495   14.79690
       O   -13.17252   -1.52800   14.44634
      H1   -12.43012   -2.01330   14.08748
       H   -10.33238   -2.96128   16.30286
       O   -11.11845   -3.41133   16.81957
      H1   -11.68852   -3.79385   16.16952
       H    -8.77013   -4.63856   18.90246
       O    -9.69341   -4.52884   19.21107
      H1   -10.19847   -4.29330   18.43827
       H   -17.50570   -6.47896   14.42303
       O   -17.95279   -6.27177   13.55197
      H1   -17.74283   -7.01723   12.93870
       H   -18.85012   -2.86287   15.31909
       O   -18.79442   -3.85884   15.45614
      H1   -18.91894   -3.93631   16.41353
       H   -19.93861   -5.60783   18.25425
       O   -19.20210   -5.06235   18.02330
      H1   -18.62660   -5.08818   18.80358
       H   -14.45111    1.90170   18.55795
       O   -14.32970    1.02943   18.17469
      H1   -14.58582    0.41881   18.90049
       H    -9.61473   -2.05257   19.64741
       O   -10.24773   -1.29729   19.79213
      H1   -10.91173   -1.20116   19.06936
       H   -17.94158    0.23252   18.67605
       O   -18.13204   -0.12660   19.52178
      H1   -18.58540   -0.98015   19.34784
       H   -15.04479   -8.43034   18.16792
       O   -15.83035   -8.92688   17.90888
      H1   -15.59807   -9.72838   17.45194
       H   -13.56310   -6.64812   16.55138
       O   -14.08932   -5.84275   16.42027
      H1   -15.03470   -6.14475   16.28331
       H   -16.51491   -7.58058   16.50353
       O   -16.69138   -6.73835   16.09556
      H1   -17.29411   -6.23334   16.62788
       H   -12.30152   -3.79797   13.49484
       O   -11.44493   -3.32536   13.43153
      H1   -11.40391   -3.10075   12.49665
       H   -13.05983   -0.86591   17.85816
       O   -12.46627   -1.60876   18.19972
      H1   -12.03035   -1.90994   17.38348
       H   -15.09258   -2.96521   16.89397
       O   -15.42869   -2.45730   16.16389
      H1   -16.31168   -2.11436   16.46811
       H   -10.08622   -7.39671   18.15362
       O   -10.08051   -7.58492   17.22043
      H1    -9.83038   -6.74205   16.80839
       H   -17.65689   -0.54063   14.49535
       O   -18.47765   -1.11627   14.61864
      H1   -19.08841   -0.57536   15.10786
       H   -17.22543    1.92186   17.22380
       O   -16.79325    1.11440   17.13885
      H1   -15.95575    1.14956   17.55222
       H   -16.63935    0.89514   15.60712
       O   -16.62058    0.85251   14.65736
      H1   -15.74833    0.69606   14.24511
       H   -14.21381   -4.44902   17.87480
       O   -14.60297   -3.80096   18.42793
      H1   -13.85218   -3.26064   18.70371
       H   -13.82324   -5.47844   14.78120
       O   -13.56820   -5.18828   13.85951
      H1   -14.41757   -4.98413   13.40297
       H   -11.67764    1.17046   16.15572
       O   -11.60372    0.65859   15.36157
      H1   -12.22095   -0.09120   15.49505

