75
frame 5 | Written by MDAnalysis XYZWriter (release 2.4.3)
       H    -0.25580    9.98993    7.40781
       O    -1.08335   10.45024    7.66175
      H1    -1.40347   10.18179    8.49059
       H    -0.44140    5.09230    4.56611
       O    -0.02931    5.17285    5.41301
      H1     0.90669    5.14802    5.26318
       H     2.73138    5.82149    6.71299
       O     3.30008    5.87212    5.95679
      H1     3.99424    5.21932    5.90957
       H     0.42775    7.22972    0.71169
       O     1.22546    6.74159    0.99024
      H1     1.65270    7.39271    1.56705
       H     0.57979    8.72220    6.27952
       O     1.05160    8.88303    7.12922
      H1     1.88235    9.37254    6.88500
       H     0.22042    5.94403    9.40628
       O    -0.39284    5.56367   10.05869
      H1    -0.51005    6.33884   10.71244
       H     3.87105   10.80891    6.67788
       O     2.99612   10.74196    6.98471
      H1     3.07758   11.20695    7.84540
       H    -0.48284   12.37953    8.19796
       O    -0.03967   13.22435    8.47508
      H1    -0.19204   13.82653    7.68587
       H     2.41275   13.24422    5.31557
       O     1.92331   13.54708    6.07078
      H1     2.07693   12.77240    6.66377
       H     2.79699    8.49557    3.26762
       O     1.90019    8.54975    2.87440
      H1     1.95689    9.37891    2.44905
       H    -2.23710    6.66158    7.71216
       O    -2.04267    6.59087    6.76480
      H1    -1.18466    6.18040    6.79027
       H    -1.59343    8.98378    3.57371
       O    -1.55370    9.45754    2.69490
      H1    -2.33868   10.02218    2.71534
       H    -1.11447   11.48353    4.64712
       O    -0.53776   11.67488    3.85263
      H1    -0.67577   10.89739    3.27438
       H     1.31174    9.42514   10.28806
       O     1.55034   10.30759   10.64431
      H1     1.62074   10.15031   11.60181
       H    -4.21304    9.75822    9.06709
       O    -4.86484    9.22335    8.51480
      H1    -4.62870    9.12292    7.56130
       H    -1.06173    8.51685    1.21861
       O    -1.12239    8.01458    0.39483
      H1    -1.08443    8.66399   -0.30547
       H    -1.73143    3.37528    7.64410
       O    -1.04094    3.09378    7.08915
      H1    -0.88796    3.94476    6.56718
       H    -2.50513   11.02000    6.15000
       O    -3.04362   11.24023    5.40008
      H1    -3.75962   11.90389    5.58933
       H     2.35266    6.22383    8.50535
       O     1.46982    6.19681    8.04319
      H1     1.31009    7.14052    7.74577
       H     0.96005   12.52225    3.62931
       O     1.70364   12.98598    3.23549
      H1     1.40565   13.87352    3.00334
       H     0.41516    8.20962    4.06753
       O    -0.12385    8.11314    4.86054
      H1    -0.68463    7.34510    4.67007
       H     3.90005    5.69652    9.94091
       O     3.93973    6.49506    9.38507
      H1     3.91094    7.24719    9.98800
       H     2.94851   12.67016    9.88484
       O     3.46197   11.86697    9.66795
      H1     2.97611   11.09745   10.00511
       H     4.13006    7.43289    4.73938
       O     4.44366    7.78486    3.90230
      H1     4.77511    6.99248    3.42093
       H    -3.12283    8.00634    5.96059
       O    -3.82915    8.55165    5.58322
      H1    -3.42797    9.43698    5.56839

