75
frame 5 | Written by MDAnalysis XYZWriter (release 2.4.3)
       H    -7.15537   11.17837  -12.29451
       O    -7.25064   12.18214  -12.27589
      H1    -8.13262   12.32681  -11.86001
       H   -12.69387   14.10172  -10.60878
       O   -13.25759   13.53707  -10.09070
      H1   -13.76600   13.02507  -10.74392
       H    -6.83736    9.33172   -7.54208
       O    -7.06910    8.83977   -6.74052
      H1    -7.44934    8.02686   -7.12514
       H    -8.73289   10.11595   -8.99858
       O    -9.11059    9.28135   -9.34743
      H1    -9.80155    9.05122   -8.69769
       H   -10.14996   16.72316   -9.38420
       O   -10.52282   17.05519  -10.25236
      H1    -9.79112   16.98599  -10.91986
       H    -7.54583   11.46865   -4.21827
       O    -7.55043   12.44839   -4.25315
      H1    -7.38254   12.66956   -5.18868
       H   -12.87250   14.37608   -4.22292
       O   -13.10843   14.83387   -5.03736
      H1   -12.52590   14.48297   -5.71756
       H   -11.88129   10.20452   -5.61251
       O   -12.36237    9.64619   -6.19685
      H1   -12.97810   10.27503   -6.62637
       H   -10.92037   11.05722   -9.57199
       O   -11.71468   10.91329  -10.07803
      H1   -12.16139   11.71576   -9.88290
       H    -6.58060   14.49048   -9.77258
       O    -7.43251   14.77701   -9.45590
      H1    -7.29809   15.70805   -9.24146
       H   -10.16856   16.64599   -6.70830
       O   -10.85495   16.50137   -7.39759
      H1   -11.58516   17.08389   -7.06326
       H    -5.80082    9.62234   -9.40713
       O    -5.85297   10.40495   -8.89151
      H1    -5.06304   10.93891   -9.04457
       H    -8.55240   18.26514   -6.19669
       O    -8.75927   17.36337   -6.03421
      H1    -7.94561   16.93165   -6.33507
       H    -6.76352   16.97998   -8.49134
       O    -7.06873   17.58381   -9.16006
      H1    -6.34379   18.25022   -9.12355
       H   -11.85004   12.18482   -3.35228
       O   -12.13836   13.05381   -3.15377
      H1   -12.97821   12.83264   -2.78089
       H    -6.16751   15.23415   -6.70904
       O    -6.26825   16.17942   -6.75687
      H1    -5.71256   16.49273   -6.01721
       H    -9.56950   13.15163   -8.54736
       O    -9.45356   12.98017   -7.57622
      H1   -10.27932   13.34146   -7.25228
       H   -12.57930   13.96754   -7.97391
       O   -11.95156   14.12944   -7.28567
      H1   -11.56848   15.01286   -7.41793
       H   -11.52249    8.66229   -7.25209
       O   -10.90287    8.04711   -7.69824
      H1   -10.37878    7.55104   -7.00215
       H    -5.92281   12.42943   -6.79246
       O    -6.51481   13.25877   -6.81415
      H1    -7.34140   12.98672   -7.14634
       H   -11.13605   14.82252  -12.47998
       O   -11.25737   14.84554  -11.49613
      H1   -11.11203   15.80173  -11.18953
       H    -9.79625   10.06335   -3.96459
       O   -10.69356   10.29213   -3.79777
      H1   -10.81787    9.90286   -2.88788
       H   -10.20015   13.59192  -10.77932
       O    -9.39889   13.08018  -10.38657
      H1    -8.75367   13.75865  -10.28342
       H    -7.37417    9.39851   -3.81717
       O    -8.08398    9.73437   -4.43021
      H1    -7.77588    9.37847   -5.24701
       H   -10.34662   13.54440   -3.24078
       O    -9.45681   13.75266   -3.00037
      H1    -8.81138   13.21302   -3.54744

