75
frame 5 | Written by MDAnalysis XYZWriter (release 2.4.3)
       H     3.54283  -17.14531  -10.95996
       O     3.16495  -18.07321  -10.86149
      H1     2.99107  -18.34447  -11.77840
       H    -0.91488  -19.47771   -6.38905
       O    -0.00667  -19.21465   -6.61804
      H1    -0.01316  -18.30897   -6.90492
       H     6.76700  -13.75246  -11.80329
       O     5.95361  -13.61429  -12.32015
      H1     5.70659  -12.66873  -12.20522
       H     6.62230  -16.85332   -9.02689
       O     6.55697  -16.05186   -9.54196
      H1     6.04384  -16.28952  -10.34131
       H     5.82505  -16.54930   -5.75644
       O     5.34380  -17.35377   -5.58640
      H1     4.46712  -17.07974   -5.67992
       H     5.60918  -12.38047   -7.21407
       O     6.52799  -12.68092   -7.25622
      H1     7.11229  -11.93739   -7.07150
       H     2.35045  -20.21490  -13.03899
       O     1.81030  -19.40235  -13.16844
      H1     2.39787  -18.67661  -13.42028
       H     6.58957  -14.34173   -6.49164
       O     6.97818  -15.22306   -6.35677
      H1     7.36827  -15.48581   -7.18192
       H     8.10134  -19.39161   -5.81497
       O     8.69273  -18.78766   -6.34553
      H1     8.89045  -19.20064   -7.22025
       H     6.43977  -16.05020   -3.12801
       O     6.29148  -16.96694   -2.91245
      H1     6.00610  -17.40907   -3.69695
       H     9.53621  -17.14323   -6.17425
       O    10.13900  -16.46062   -5.87572
      H1     9.58625  -15.66841   -5.70461
       H     0.55370  -18.92204   -4.97515
       O     0.98185  -18.73002   -4.15361
      H1     0.31219  -18.93704   -3.42451
       H    10.74380  -15.69250  -10.23873
       O     9.82515  -15.41824  -10.12476
      H1     9.39912  -16.21452   -9.75746
       H     5.76100  -19.33148   -9.39894
       O     6.19084  -18.71274   -8.66847
      H1     5.36912  -18.35293   -8.28578
       H     4.30145  -18.25740  -14.15182
       O     3.74537  -17.69240  -13.62075
      H1     3.28504  -17.03231  -14.23531
       H     4.49320  -16.35279  -12.53840
       O     4.64773  -15.86541  -11.74152
      H1     5.19604  -15.08344  -12.05979
       H     1.11135  -18.33744  -10.48598
       O     0.35797  -18.24930   -9.87615
      H1     0.08377  -19.13204   -9.67597
       H     1.27565  -16.74658   -7.24672
       O     0.38798  -16.68507   -7.72686
      H1     0.41109  -17.36557   -8.39624
       H     2.57523  -14.89038   -9.78273
       O     1.76053  -14.90314  -10.28463
      H1     1.16413  -15.22173   -9.57866
       H     3.67852  -13.75668   -8.74892
       O     3.95633  -14.66525   -8.53732
      H1     4.60927  -14.94670   -9.18733
       H     3.20159  -15.46550   -7.16429
       O     2.85834  -16.03967   -6.46056
      H1     2.76292  -15.43554   -5.66288
       H     7.75535  -19.06487  -12.86897
       O     7.14956  -18.37534  -12.44181
      H1     6.55771  -18.97198  -11.99327
       H     8.15286  -14.41059   -5.39879
       O     8.92575  -14.02649   -4.89644
      H1     9.24215  -13.16434   -5.31062
       H     3.42231  -17.98822   -9.14154
       O     3.46144  -18.27302   -8.21148
      H1     3.11694  -17.52343   -7.72964
       H     8.98208  -16.34587  -14.13063
       O     8.09815  -16.01820  -14.01100
      H1     7.66565  -16.52635  -13.26345

