75
frame 0 | Written by MDAnalysis XYZWriter (release 2.4.3)
       H    10.95444    3.26337   15.00265
       O    10.65276    3.70157   14.22811
      H1    10.77833    3.05258   13.52552
       H    14.66790    2.72132    9.15535
       O    15.54458    3.11154    8.98616
      H1    15.39269    4.02595    9.37666
       H    12.17167    0.60930   13.35501
       O    12.72109   -0.21242   13.66247
      H1    13.26289   -0.35208   12.82939
       H    14.96996    0.17551   10.97903
       O    14.45030   -0.52738   11.45696
      H1    14.30866   -1.25243   10.83734
       H    13.17253    2.11111    6.59564
       O    13.32517    1.72612    5.68984
      H1    13.25619    2.48615    5.07179
       H    14.88895   -2.27733    8.41262
       O    14.80134   -2.59929    9.32140
      H1    15.50313   -3.23404    9.44987
       H    12.07830   -4.70334   13.88097
       O    11.92981   -3.74872   13.97943
      H1    12.08349   -3.31523   13.11285
       H    14.06779   -1.04719    5.89847
       O    14.06855   -1.23713    6.80674
      H1    13.20126   -1.54680    7.00022
       H     6.55508   -0.48327    6.19966
       O     6.46764    0.04522    7.00853
      H1     6.66627   -0.58867    7.73399
       H    10.20043   -0.44888   14.31418
       O     9.30654   -0.32866   14.73783
      H1     8.79500    0.20358   14.06833
       H     7.83504    1.98202   12.99090
       O     8.24959    1.15619   12.66320
      H1     7.48656    0.66371   12.32696
       H     8.54444   -1.62880    8.63101
       O     7.66528   -1.37863    8.98732
      H1     7.41450   -2.20612    9.45980
       H    10.92591   -1.92257    8.20063
       O    10.22367   -1.56412    7.65520
      H1     9.88626   -2.34670    7.19686
       H    11.59733   -0.91348    9.92831
       O    11.22003    0.03671    9.99898
      H1    10.43252    0.06935    9.38120
       H    12.64083    5.95043    9.82979
       O    12.57592    5.39515    9.05166
      H1    11.81493    4.83593    9.23351
       H    13.50251    4.67020   12.17622
       O    13.71635    3.82677   11.72862
      H1    14.50636    3.42502   12.11690
       H    10.53927    3.50286    7.45182
       O    10.69025    3.38930    8.37388
      H1    10.08643    2.72485    8.68991
       H     9.59627    3.69454   10.49579
       O     9.56693    4.36477   11.25708
      H1     8.94468    4.03570   11.95577
       H    10.42918   -0.58317    6.10070
       O    10.59758    0.11026    5.51212
      H1    10.01999   -0.08516    4.73172
       H    11.54269   -3.24693    9.93033
       O    11.98260   -2.42790    9.54155
      H1    12.88101   -2.71186    9.45545
       H    11.48734    1.31131   11.61045
       O    11.53922    1.78206   12.44626
      H1    12.12684    2.49800   12.18943
       H    12.25086    2.49763    8.51013
       O    12.92630    1.90224    8.82328
      H1    12.42339    1.17953    9.26941
       H     8.38419    0.71795   10.22336
       O     8.62687    1.47708    9.65179
      H1     8.02088    1.34653    8.92637
       H    10.13851   -4.84902    9.99997
       O    10.42705   -4.47341   10.80762
      H1     9.64173   -4.26842   11.43229
       H    10.63892    2.08594    5.67696
       O    10.24231    2.94381    5.64838
      H1     9.31482    2.78248    5.40447

