75
frame 6 | Written by MDAnalysis XYZWriter (release 2.4.3)
       H     0.71270   17.40825  -10.46742
       O     1.47528   17.20107  -11.06401
      H1     2.18411   16.76454  -10.51261
       H    -3.97080   14.33227  -11.03071
       O    -4.57063   13.60440  -11.01412
      H1    -4.36242   12.96366  -11.66655
       H    -4.00293   14.92009  -15.16210
       O    -3.02480   15.04791  -15.22361
      H1    -2.88370   15.68789  -15.96427
       H    -2.62262   16.47438  -12.71257
       O    -2.81754   17.01727  -13.48674
      H1    -2.88740   16.38304  -14.22511
       H    -3.44829   19.27255  -14.39793
       O    -4.27519   19.79796  -14.37666
      H1    -4.84607   19.52442  -13.66756
       H     0.79557   16.02098  -13.42455
       O     1.17774   15.22894  -13.01103
      H1     1.32924   15.51021  -12.08364
       H    -1.00128   16.07526  -18.27309
       O    -0.66204   16.40520  -17.43770
      H1    -0.34490   15.65946  -16.90911
       H    -3.99103   17.33727  -17.84725
       O    -4.32434   16.65274  -17.21644
      H1    -4.71611   16.00841  -17.78888
       H    -1.20658   18.96688  -11.00830
       O    -1.18788   19.20985  -10.04709
      H1    -2.11858   19.29000   -9.82781
       H    -0.79575   18.37960  -15.07237
       O    -1.47375   18.88248  -15.51574
      H1    -1.56381   18.27712  -16.29309
       H    -1.69646   14.00479  -13.33018
       O    -1.07520   13.85056  -12.60994
      H1    -0.30663   14.25274  -12.91708
       H    -6.05524   14.68577  -11.05186
       O    -6.68812   15.45125  -11.16765
      H1    -6.18706   16.26404  -10.95770
       H    -8.61782   18.40575  -12.87464
       O    -8.00032   18.22634  -12.11951
      H1    -7.43424   17.44062  -12.27821
       H     1.47904   17.82337  -14.78345
       O     0.59645   17.58406  -14.38721
      H1     0.51259   18.18798  -13.69037
       H    -4.71492   17.13978  -14.09450
       O    -5.60416   16.98476  -13.78209
      H1    -6.25386   17.22841  -14.48664
       H    -2.14972   11.61976  -10.07307
       O    -1.50614   11.50980  -10.76887
      H1    -1.69398   12.11806  -11.52081
       H    -5.88002   17.18107   -8.83249
       O    -6.21220   18.04685   -9.14963
      H1    -5.56385   18.69679   -8.97123
       H    -0.65877   13.13742  -15.46543
       O    -1.29262   13.30007  -16.15249
      H1    -1.95589   13.91192  -15.79588
       H    -1.58033   18.51314  -13.04716
       O    -0.78351   19.00237  -12.68157
      H1    -0.92315   19.88471  -13.03596
       H    -6.45698   13.53788  -13.95035
       O    -5.92823   14.31891  -14.19623
      H1    -6.06596   14.98288  -13.50658
       H    -1.93830   14.86544  -11.11155
       O    -2.55566   15.59731  -10.99512
      H1    -2.50822   15.96047  -10.06160
       H    -3.92033   12.73893   -9.54951
       O    -3.62661   12.20022   -8.79397
      H1    -3.09060   12.86423   -8.28793
       H    -2.44163   15.76130   -7.98189
       O    -2.17920   16.51447   -8.53584
      H1    -2.62310   17.29568   -8.20000
       H    -4.11551   19.81487   -8.47735
       O    -3.47712   19.09267   -8.36153
      H1    -2.97786   19.15729   -7.52868
       H     0.50346   16.21244   -7.95479
       O     0.61334   17.15449   -8.04187
      H1    -0.27106   17.51368   -8.29376

