75
frame 7 | Written by MDAnalysis XYZWriter (release 2.4.3)
       H    -4.54450    4.15021   12.89879
       O    -4.59224    3.34656   12.44278
      H1    -4.71370    2.70546   13.13154
       H    -0.02991    2.92751   13.74610
       O    -0.60039    3.01076   14.49390
      H1    -0.03074    2.80978   15.26407
       H    -3.69400    2.83490   17.08582
       O    -2.77654    3.04783   17.29136
      H1    -2.60640    3.62297   16.51778
       H    -0.96957   -0.84526   13.62816
       O    -1.84163   -1.17251   13.87287
      H1    -2.45973   -0.38427   13.85808
       H     3.05563    3.87498   13.51640
       O     3.76178    3.18663   13.52098
      H1     3.84252    2.98980   14.43777
       H     0.31487    5.33687   10.11742
       O    -0.37235    5.15938   10.74683
      H1    -0.40763    5.96753   11.29270
       H     1.18061    1.45736   16.29606
       O     0.89298    2.29495   16.63710
      H1     0.32277    2.14148   17.43511
       H    -4.05313    6.87799   19.06769
       O    -3.64567    5.99179   19.20663
      H1    -3.16265    5.73836   18.39228
       H    -1.95638    9.36090   12.48755
       O    -2.87631    9.08143   12.65649
      H1    -2.80311    8.90517   13.60153
       H    -5.46223    5.82090   15.29476
       O    -4.96447    5.51158   14.49279
      H1    -4.03320    5.29706   14.75888
       H    -0.91036    6.67060   18.20360
       O    -1.34965    7.07235   17.42262
      H1    -0.99585    7.98163   17.43320
       H    -1.76516    4.43390   14.89272
       O    -2.28309    5.04388   15.39965
      H1    -1.68031    5.77366   15.64311
       H     0.94403    6.13870   15.66499
       O     0.75700    6.68008   14.88409
      H1     1.45268    7.35198   15.00045
       H    -1.61479    2.90915   18.54830
       O    -1.02339    2.35345   19.08129
      H1    -0.39162    2.97087   19.55124
       H     2.47138    5.98761   18.15547
       O     2.28004    5.63992   17.24683
      H1     2.71970    4.71880   17.29101
       H    -3.28252   10.51262   15.24792
       O    -3.08852    9.53367   15.31494
      H1    -2.20141    9.47583   15.69029
       H     2.58221    2.95858   16.62522
       O     3.48564    3.28654   16.50338
      H1     4.09507    2.73743   16.93527
       H     1.49175    5.19995   12.23267
       O     2.08757    5.48062   12.86522
      H1     1.62692    5.91005   13.56558
       H    -2.11447    1.66305   14.23594
       O    -2.94015    1.26334   14.54753
      H1    -2.83769    1.12607   15.44806
       H    -0.14532    7.04476   13.33815
       O    -0.21504    7.43945   12.40386
      H1    -1.16570    7.68181   12.39088
       H    -5.70558    2.28382   17.76489
       O    -5.44236    2.22811   16.83204
      H1    -6.18273    2.54886   16.26732
       H    -4.76195    1.04078   14.24691
       O    -5.45393    0.95481   13.61312
      H1    -6.25947    1.39794   14.03833
       H    -0.26774    3.30576   11.72351
       O     0.27234    2.54132   11.96405
      H1     0.53588    2.26975   11.05707
       H    -4.25647    3.02944   10.65709
       O    -4.34640    3.27287    9.69574
      H1    -5.01138    2.60535    9.45648
       H    -5.86700    9.29207   16.32341
       O    -5.44634    8.47241   16.16025
      H1    -4.55898    8.76640   15.84622

