75
frame 6 | Written by MDAnalysis XYZWriter (release 2.4.3)
       H   -15.49440   13.46455   11.31716
       O   -15.59960   12.51478   11.03726
      H1   -16.16579   12.48208   10.25974
       H   -13.70653    9.92711    6.54965
       O   -13.17601    9.44575    7.22853
      H1   -13.83317    9.18965    7.90612
       H   -15.44298    8.84627    9.80637
       O   -15.28240    9.58244    9.19310
      H1   -15.01792   10.28079    9.81184
       H   -16.75838    9.63660    8.11211
       O   -17.59278    9.38222    7.71371
      H1   -17.86213   10.06071    7.04010
       H   -11.07578   16.21044   12.06795
       O   -10.78198   15.44376   11.51448
      H1   -11.52243   14.80068   11.67708
       H   -13.23619   16.89827    9.86363
       O   -13.98882   17.39742   10.24884
      H1   -13.92451   17.20093   11.22558
       H   -18.20448   16.17340    9.47713
       O   -19.07783   16.42467    9.82689
      H1   -19.66163   16.54885    9.03846
       H   -16.41157   17.00921    5.46301
       O   -17.16686   16.45221    5.29495
      H1   -17.42026   16.52080    4.35471
       H   -14.41706   16.39893    6.19233
       O   -14.81904   17.13528    6.64450
      H1   -15.34335   16.69130    7.31097
       H   -14.49191   10.43427   12.44341
       O   -13.92796   10.63423   11.70449
      H1   -14.42406   11.37418   11.32832
       H   -12.68517   12.64798   11.80967
       O   -12.77661   13.57829   11.61010
      H1   -12.97952   13.66069   10.69948
       H   -11.16995   15.53977    9.29487
       O   -11.71416   16.00503    8.64995
      H1   -11.02059   16.63404    8.22183
       H   -11.78430   12.08908    5.07831
       O   -11.53135   12.97819    5.26566
      H1   -11.06281   12.84768    6.16503
       H   -18.95524   13.98728    8.24557
       O   -18.64955   14.02296    7.34226
      H1   -18.94918   14.86344    6.93656
       H   -14.64363   14.78574   12.26883
       O   -15.26743   15.11918   11.62995
      H1   -15.95913   15.50977   12.23060
       H   -12.08663   10.14367    8.73186
       O   -11.64076   10.37717    9.54385
      H1   -12.40925   10.40432   10.18370
       H   -15.79608   13.42301    4.36715
       O   -15.53171   13.00575    5.19292
      H1   -15.25532   12.07565    5.02025
       H   -15.40384    9.72929    5.01803
       O   -14.71898   10.40615    5.08798
      H1   -14.05819   10.14052    4.43979
       H   -16.35159   15.18728    8.33611
       O   -16.38974   15.92951    8.98991
      H1   -15.86745   15.74299    9.75799
       H   -12.78475   14.25500    5.14308
       O   -13.42519   14.99400    5.08429
      H1   -14.22989   14.40640    4.97748
       H    -9.60209   12.08638    8.08592
       O    -9.45167   12.14316    7.11590
      H1    -9.90979   11.30983    6.91253
       H    -9.74829   11.94989   10.35096
       O   -10.04794   12.76317    9.87469
      H1   -10.90406   12.37912    9.68387
       H   -19.37236   12.96417   10.92424
       O   -18.82150   13.49695   10.31281
      H1   -19.14128   14.36929   10.51854
       H   -14.32320   13.74446    8.72199
       O   -13.35419   13.67232    8.91216
      H1   -12.90965   14.51665    8.57350
       H   -17.04410   13.57234    7.52623
       O   -16.07887   13.51594    7.69062
      H1   -15.80167   13.12369    6.85545

