75
frame 6 | Written by MDAnalysis XYZWriter (release 2.4.3)
       H    -7.62051    9.50530  -17.92135
       O    -8.23702   10.20751  -18.21931
      H1    -8.84330   10.45528  -17.45963
       H    -6.33024    5.76375  -18.83643
       O    -6.24382    6.09436  -17.89072
      H1    -5.59930    5.54483  -17.44976
       H    -8.02429   11.55576  -13.26719
       O    -7.94740   12.45157  -13.60179
      H1    -8.41263   12.91620  -12.91485
       H    -4.00293   14.92009  -15.16210
       O    -3.02480   15.04791  -15.22361
      H1    -2.88370   15.68789  -15.96427
       H    -6.26676   11.99250  -16.63127
       O    -5.84842   11.34585  -16.04527
      H1    -6.40586   10.55682  -16.18794
       H    -5.56699    7.94054  -17.97079
       O    -5.89051    8.86151  -18.06277
      H1    -5.18258    9.31130  -17.61900
       H    -1.69646   14.00479  -13.33018
       O    -1.07520   13.85056  -12.60994
      H1    -0.30663   14.25274  -12.91708
       H    -7.05765    7.79357  -15.34691
       O    -6.45870    7.20933  -14.83710
      H1    -5.85860    6.67035  -15.33364
       H    -1.70637    7.65323  -16.88507
       O    -2.70330    7.68310  -16.94571
      H1    -2.87830    8.58096  -17.13917
       H     0.88051    9.45012  -19.12967
       O     0.31556   10.23451  -19.16833
      H1     0.12618   10.35714  -20.10851
       H    -1.32881    9.66866  -13.87934
       O    -0.94589   10.12476  -14.69060
      H1    -1.63187   10.57224  -15.14749
       H    -4.85724   10.60940  -12.84119
       O    -4.45697   11.41118  -13.14988
      H1    -4.96387   11.61428  -13.93127
       H     0.38759   11.93492  -18.55032
       O     0.30734   12.90853  -18.32939
      H1    -0.26253   12.87861  -17.53627
       H    -0.44776    8.60122  -15.74752
       O     0.17833    8.04379  -16.26269
      H1     0.36950    7.26089  -15.68088
       H    -7.36576   16.27314  -16.19377
       O    -7.70489   15.30832  -16.16873
      H1    -7.26850   14.80857  -15.41713
       H    -7.63609   13.32724  -18.37250
       O    -6.72393   13.62457  -18.07481
      H1    -6.91555   14.25155  -17.33411
       H    -3.52296    6.09608  -16.31815
       O    -3.99387    5.32487  -15.89743
      H1    -3.55140    5.31504  -14.97911
       H    -0.65877   13.13742  -15.46543
       O    -1.29262   13.30007  -16.15249
      H1    -1.95589   13.91192  -15.79588
       H    -6.45698   13.53788  -13.95035
       O    -5.92823   14.31891  -14.19623
      H1    -6.06596   14.98288  -13.50658
       H    -8.69944    9.53306  -14.33395
       O    -8.62119    9.20530  -15.21866
      H1    -9.37218    8.62491  -15.18072
       H    -1.67016    9.80153  -19.14915
       O    -2.50769   10.30794  -19.28622
      H1    -3.15942    9.69181  -19.72675
       H     1.51852   12.15030  -15.31635
       O     0.89085   12.43922  -14.67196
      H1     0.21328   11.75033  -14.63048
       H    -3.90870    8.48700  -13.00494
       O    -4.83140    8.53454  -12.66480
      H1    -5.39472    8.17130  -13.34681
       H    -1.62029    7.48987  -13.55532
       O    -1.92496    8.23870  -13.05718
      H1    -1.64784    8.15783  -12.17341
       H    -3.09463   10.36834  -17.64008
       O    -3.37522   10.39268  -16.69159
      H1    -4.28067   10.78142  -16.71370

