75
frame 6 | Written by MDAnalysis XYZWriter (release 2.4.3)
       H    11.47171   -2.39587   -0.33078
       O    11.55562   -2.28252   -1.31484
      H1    12.46344   -2.53691   -1.45899
       H    17.10922   -5.65032   -4.75231
       O    17.95444   -5.72769   -4.36026
      H1    17.88399   -5.63639   -3.42409
       H    13.49196   -3.24720   -2.93928
       O    13.96633   -3.34113   -2.10385
      H1    14.08442   -4.31096   -1.94061
       H    19.01545   -6.22545   -1.45307
       O    18.15715   -5.88320   -1.68808
      H1    18.14434   -4.99827   -1.21454
       H    15.02659   -1.53033   -2.61231
       O    15.64918   -0.75882   -2.41649
      H1    15.26161   -0.31791   -1.64409
       H    15.17167   -3.62108  -11.17221
       O    14.47943   -3.41383  -10.49346
      H1    14.34441   -4.19261   -9.95639
       H    16.46481   -3.25239    0.45543
       O    15.66816   -2.96367    0.91503
      H1    15.03615   -2.99593    0.13295
       H    12.67454   -9.63664   -4.12545
       O    13.19574   -8.89750   -3.72555
      H1    13.96786   -9.35427   -3.28337
       H    14.63192   -9.32974   -8.34563
       O    14.84317   -8.36747   -8.49911
      H1    14.62525   -8.01960   -7.63742
       H    15.76202   -4.29745   -5.13370
       O    15.32533   -5.14652   -5.13042
      H1    15.31819   -5.30630   -4.19058
       H    14.15854   -8.00780   -5.03046
       O    14.71016   -7.85340   -5.82325
      H1    14.80276   -6.88341   -5.83960
       H    16.78355   -2.19165   -8.63015
       O    16.20052   -1.46377   -8.92211
      H1    15.56795   -1.93118   -9.42116
       H    17.16767   -2.01752   -4.54729
       O    16.61836   -2.57321   -5.19727
      H1    15.94535   -1.89154   -5.56485
       H    13.30375   -6.03030   -8.88337
       O    13.94109   -5.36872   -8.78335
      H1    13.36921   -4.63269   -8.35143
       H    12.39494   -4.03147   -6.45892
       O    12.24659   -3.62302   -7.36127
      H1    12.35835   -2.66673   -7.10646
       H    19.44995   -8.25709   -3.56992
       O    19.37090   -7.96602   -4.56514
      H1    18.85943   -7.15742   -4.61008
       H    19.79244   -0.56964   -4.48039
       O    19.49816   -0.00784   -3.75224
      H1    18.61348    0.30177   -3.87194
       H    16.51533    0.61712   -5.44283
       O    16.86288    0.92129   -4.62459
      H1    16.23161    0.69407   -3.93699
       H    13.95984   -7.06117   -2.79736
       O    14.26773   -6.18124   -2.84923
      H1    13.52203   -5.76246   -3.27615
       H    12.67153   -0.97557   -4.59310
       O    12.84044   -1.92192   -4.53247
      H1    12.18692   -2.42835   -5.06399
       H    15.31532   -0.78993   -7.64165
       O    15.16475   -0.39206   -6.77112
      H1    14.21068   -0.57817   -6.59175
       H    16.14687   -8.66729   -5.23147
       O    16.96227   -9.09530   -4.86467
      H1    17.68209   -8.45498   -5.02864
       H    11.56438   -4.53542   -4.02815
       O    12.00660   -4.72500   -4.85028
      H1    11.58835   -5.47750   -5.20803
       H    17.74779   -2.73691   -6.79179
       O    18.02396   -3.14522   -7.61955
      H1    18.11712   -4.13599   -7.40441
       H    16.98948   -6.38999   -9.04133
       O    16.76553   -5.44852   -8.88239
      H1    15.79378   -5.47154   -8.90282

