75
frame 7 | Written by MDAnalysis XYZWriter (release 2.4.3)
       H     8.45025  -19.09601   -4.22806
       O     7.73221  -19.67143   -4.44509
      H1     6.97139  -19.07323   -4.47877
       H     2.60508  -16.52944   -9.71590
       O     2.72687  -17.39688  -10.10653
      H1     2.46505  -17.33418  -11.11063
       H     9.37355  -14.51185   -2.91828
       O     8.51322  -14.52601   -3.35182
      H1     8.83291  -14.44286   -4.29107
       H     8.88917  -18.02480   -1.79231
       O     8.05294  -18.15773   -1.35238
      H1     7.36259  -18.03555   -1.96936
       H     3.65024  -14.71415   -2.83252
       O     3.13900  -14.15661   -3.43158
      H1     2.39121  -14.70596   -3.80846
       H     6.90764  -17.53674   -9.08625
       O     6.82756  -16.65499   -9.54518
      H1     6.12086  -16.79015  -10.20908
       H     5.47768  -16.59835   -6.42601
       O     4.71288  -17.17432   -6.27244
      H1     4.01323  -16.45873   -6.24991
       H     5.62442  -12.93815   -8.36754
       O     6.06220  -12.98326   -7.44987
      H1     5.42759  -12.87592   -6.71572
       H     6.73694  -14.54436   -7.03160
       O     7.11153  -15.41675   -6.88671
      H1     6.97098  -15.83896   -7.72896
       H     8.32537  -18.99867   -7.85554
       O     9.22453  -18.72855   -7.76119
      H1     9.79920  -19.51861   -7.61956
       H     5.13458  -11.38726   -5.19515
       O     4.64669  -12.19351   -5.26929
      H1     4.71480  -12.87779   -4.57322
       H     7.22480  -15.83995   -2.97212
       O     6.47599  -16.43638   -3.09286
      H1     5.93663  -16.17356   -2.41475
       H    10.09102  -17.14972   -7.09379
       O    10.70940  -16.48711   -6.72540
      H1    10.23978  -15.70529   -6.53727
       H     9.16765  -15.12680  -10.95042
       O     8.54279  -14.50874  -10.57571
      H1     8.10157  -14.96052   -9.85989
       H     7.09846  -19.55492  -10.19677
       O     6.93260  -19.41423   -9.29803
      H1     5.96826  -19.43382   -9.19480
       H     4.08776  -16.73320  -11.24705
       O     4.99497  -16.74569  -11.52526
      H1     4.92433  -16.16809  -12.29982
       H     4.12159  -15.80544   -0.69577
       O     4.68410  -15.34344   -1.33313
      H1     5.15438  -14.63580   -0.82979
       H     6.93377  -11.43758   -7.63727
       O     7.35869  -10.53816   -7.67407
      H1     7.24299  -10.09609   -8.56092
       H     0.01628  -16.49141   -4.03633
       O     0.44391  -15.67742   -4.25039
      H1     0.01617  -15.08587   -3.71393
       H     0.72385  -16.70186   -6.81324
       O     0.02640  -17.29590   -7.13469
      H1    -0.07007  -17.33905   -8.07598
       H     3.54432  -13.72936   -9.66804
       O     2.83540  -14.35215   -9.40990
      H1     2.01837  -13.85422   -9.65998
       H     4.34718  -12.18356   -9.84519
       O     5.11318  -12.84955   -9.87333
      H1     5.11443  -13.07641  -10.83285
       H     2.59772  -14.81682   -7.70656
       O     2.31490  -15.22265   -6.88907
      H1     1.75837  -14.51076   -6.47698
       H     8.44235  -14.72738   -6.46338
       O     9.31519  -14.26559   -6.06055
      H1     9.50762  -13.43227   -6.57897
       H     3.94020  -18.59719   -9.01548
       O     4.30939  -19.21027   -8.38997
      H1     4.54124  -18.64409   -7.62718

