75
frame 0 | Written by MDAnalysis XYZWriter (release 2.4.3)
       H     9.75804   15.78397    2.23196
       O     8.91737   16.15095    2.12646
      H1     8.21543   15.45651    2.34494
       H     2.48917   18.95917    1.01263
       O     2.56815   18.03354    1.29810
      H1     1.74751   17.61972    1.08005
       H     6.99239   13.25622    4.34321
       O     7.14410   12.31128    4.63994
      H1     6.27904   11.91776    4.74828
       H     3.93804   19.19062    5.50450
       O     3.92253   18.29973    5.93147
      H1     4.81294   17.95671    5.72213
       H     2.79954   18.24977    7.22585
       O     2.33292   18.05834    8.06910
      H1     1.40125   18.48379    7.87331
       H     4.66533   17.91126   12.13570
       O     4.35260   16.97695   11.94036
      H1     4.92078   16.54698   11.27221
       H     7.37115   18.96900    8.26867
       O     6.50965   19.18830    7.88417
      H1     5.95197   19.46686    8.58715
       H     2.29970   15.05689    7.97582
       O     3.05299   15.48061    8.48138
      H1     2.81521   16.41251    8.34539
       H     2.19048   17.65355    3.50247
       O     2.14571   16.99085    4.24264
      H1     2.76605   17.27190    4.89048
       H     3.39923   13.73826    1.14044
       O     2.74962   14.41775    0.87322
      H1     3.21843   15.23129    1.18181
       H     9.45622   18.15354    9.11063
       O     9.41602   18.50412    8.17808
      H1     9.64828   19.47238    8.34042
       H     1.49630   13.23546    5.98895
       O     1.76324   13.45403    6.88936
      H1     1.97788   12.57396    7.26320
       H     8.46784   19.11072    2.39337
       O     8.10166   18.80524    3.20672
      H1     8.43668   17.86994    3.12233
       H     8.38108   15.25900    9.19036
       O     7.95570   14.68988    8.52963
      H1     8.64126   14.03091    8.26600
       H     8.30979   15.24055    6.61357
       O     8.58656   15.62851    5.78694
      H1     7.91177   16.29570    5.59189
       H     6.21067   14.98882    2.45377
       O     6.98999   14.35434    2.49936
      H1     7.14072   13.85613    1.61856
       H     1.77319   14.28928   11.26505
       O     2.49518   14.07930   10.64274
      H1     2.45302   14.75975    9.96190
       H     6.09087   18.52494    1.13722
       O     5.64227   18.52015    1.99931
      H1     6.37110   18.73244    2.62973
       H    -0.22062   19.01101    9.03838
       O    -0.05364   19.14295    8.09757
      H1    -0.73458   18.67247    7.57174
       H    10.16760   17.91697    6.66681
       O    10.42455   17.64946    5.79798
      H1     9.79898   16.89388    5.62514
       H     5.04698   16.98292    2.65306
       O     4.78228   16.06362    2.93081
      H1     3.89969   16.20042    3.30864
       H     5.92107   15.44212    9.05155
       O     5.53632   15.36384    9.91709
      H1     4.56241   15.21907    9.75621
       H     5.10348   14.01607    6.86147
       O     5.08172   14.90283    6.56690
      H1     4.40878   15.32382    7.11426
       H     0.66605   17.16200    5.57672
       O    -0.32681   17.02327    5.66854
      H1    -0.52751   16.49307    6.42805
       H     6.00618   16.33851    6.02307
       O     6.37468   17.17939    5.66516
      H1     6.55867   17.61905    6.52085

