75
frame 7 | Written by MDAnalysis XYZWriter (release 2.4.3)
       H     8.80005    4.62400  -13.51351
       O     9.13226    4.73796  -12.60765
      H1     8.54936    5.24937  -12.08341
       H     2.31493    5.49645  -10.83225
       O     2.92404    4.80832  -10.69397
      H1     3.29707    4.94033   -9.77967
       H    12.12742    4.48720   -8.12903
       O    11.42464    4.51091   -7.53253
      H1    11.66489    5.01535   -6.76597
       H     8.23070    1.00080   -6.30727
       O     7.44083    0.78635   -6.79649
      H1     7.49674    1.51035   -7.47647
       H     4.76690    4.58299   -8.02780
       O     3.83333    4.73411   -8.25388
      H1     3.35668    3.93193   -8.02091
       H     5.04201    0.34617   -8.94900
       O     5.45303    0.55183   -9.79010
      H1     4.76011    0.99849  -10.28309
       H     4.44483    6.44144  -13.09209
       O     4.80867    5.62243  -12.70760
      H1     4.30715    5.45083  -11.93707
       H     7.54371    6.75289  -10.27859
       O     7.54063    5.93951  -10.80063
      H1     6.67727    5.97799  -11.27710
       H     6.80752   -2.43770   -9.13653
       O     6.40349   -2.92848   -9.89488
      H1     6.57909   -2.33935  -10.67271
       H     8.61267    2.23794  -10.53323
       O     9.07856    2.08129  -11.44412
      H1     9.41973    2.93509  -11.74828
       H     5.97180    0.82183   -4.94762
       O     5.14168    0.76732   -4.47228
      H1     5.35945    0.89214   -3.56010
       H     6.49624    3.88043   -6.28438
       O     6.42703    4.37041   -7.14469
      H1     7.12677    4.98152   -7.14138
       H     3.14893    1.86447  -12.56294
       O     2.90825    1.80212  -11.60489
      H1     2.94938    2.74330  -11.26748
       H     6.54169    2.02968   -9.27345
       O     7.26684    2.67336   -9.25398
      H1     6.91143    3.48936   -8.90018
       H     8.81689    6.00701   -6.27984
       O     8.91718    5.64513   -7.14937
      H1     9.77096    5.15256   -7.15636
       H     8.23745    6.76657   -8.13164
       O     7.65501    7.44907   -8.55857
      H1     6.74320    7.42516   -8.31419
       H     3.85819    2.18006   -5.44216
       O     3.24582    2.48374   -6.12074
      H1     2.37667    2.23330   -5.73307
       H     9.06155   -0.08637  -14.41943
       O     8.69806    0.74979  -14.25128
      H1     8.92710    1.00421  -13.31400
       H     8.53866   -0.94818   -8.75412
       O     9.12044   -0.59842   -9.45739
      H1     8.60747   -0.88521  -10.22503
       H     7.55084   -0.84442   -7.21365
       O     7.66206   -1.71413   -7.59846
      H1     8.37363   -2.09182   -7.05047
       H    11.20283    2.09296   -5.47968
       O    10.41212    2.08142   -5.94405
      H1    10.75715    2.56048   -6.70438
       H    11.39472    0.61863  -12.18555
       O    11.04971   -0.08461  -11.58709
      H1    10.40342    0.42229  -11.08320
       H     6.72044   -0.37301  -11.81457
       O     7.28167   -1.15353  -11.71320
      H1     7.23138   -1.67915  -12.47016
       H     8.78436    3.49685   -5.04616
       O     7.92582    3.46553   -4.56512
      H1     7.54137    4.33077   -4.75223
       H     4.18035   -0.55511   -6.56363
       O     3.91565    0.00978   -7.26035
      H1     3.68650    0.85591   -6.85332

