75
frame 7 | Written by MDAnalysis XYZWriter (release 2.4.3)
       H   -14.61384  -14.25401   -0.72281
       O   -15.26167  -13.66188   -1.10049
      H1   -16.13325  -14.06347   -1.01871
       H   -16.55093   -7.48043   -1.15554
       O   -16.02728   -6.68882   -0.87766
      H1   -15.33414   -6.75771   -1.49290
       H   -14.81016   -9.87983   -0.06581
       O   -14.73952   -9.88496   -0.98508
      H1   -14.82849  -10.81915   -1.10897
       H   -19.06797  -13.40709    3.26965
       O   -19.39390  -12.62648    2.83144
      H1   -18.82041  -11.87646    3.15429
       H   -16.78664  -15.74052   -3.94685
       O   -17.66078  -15.37368   -4.14068
      H1   -18.26525  -16.15750   -4.09350
       H   -18.84474   -6.97682   -1.33624
       O   -19.39924   -6.16989   -1.16838
      H1   -19.16235   -5.87984   -0.27590
       H   -16.82393   -9.33427   -1.33350
       O   -17.50178   -8.71411   -1.16240
      H1   -17.81418   -8.73004   -0.21070
       H   -17.89037   -9.73677    4.48764
       O   -17.99213   -9.65861    3.53530
      H1   -17.18774  -10.10604    3.19297
       H   -14.83743   -9.30150   -4.47284
       O   -14.17258   -8.65766   -4.76357
      H1   -14.44758   -8.33588   -5.59943
       H   -18.64297  -13.85509   -1.42845
       O   -17.85958  -14.15389   -1.83900
      H1   -18.05437  -14.58165   -2.71339
       H   -16.67549  -10.35710   -5.35281
       O   -16.36585  -10.38053   -4.43718
      H1   -17.02029  -10.61002   -3.79708
       H   -18.60597   -8.86512    1.94599
       O   -18.94946   -8.36661    1.22023
      H1   -19.69281   -8.84703    0.74107
       H   -17.48994  -12.40749   -2.49180
       O   -17.72562  -11.48030   -2.53081
      H1   -18.67510  -11.43356   -2.40950
       H   -14.88321   -9.81011    3.02009
       O   -15.35604  -10.46030    2.46240
      H1   -14.80726  -11.23592    2.54623
       H   -12.78097   -9.73373   -4.44574
       O   -12.23528  -10.54432   -4.18619
      H1   -12.96884  -11.20068   -3.99719
       H   -17.48192  -15.89637   -1.13678
       O   -17.56325  -16.79661   -0.75134
      H1   -16.72064  -17.08511   -0.37315
       H   -19.11915  -14.25825   -6.55555
       O   -18.86024  -13.42756   -6.08054
      H1   -18.51859  -13.89021   -5.31864
       H   -15.20292  -11.88774   -4.18931
       O   -14.44825  -12.45397   -4.01326
      H1   -14.63068  -12.82092   -3.15335
       H   -16.42565  -12.36213    2.92428
       O   -16.26398  -12.76358    3.80859
      H1   -16.85869  -12.26436    4.37050
       H   -19.15807   -9.12642   -3.30393
       O   -19.59758   -8.59790   -4.04397
      H1   -19.55126   -7.65898   -3.79490
       H   -19.64619  -10.79949   -8.23159
       O   -18.79728  -11.28009   -8.06488
      H1   -19.02760  -11.76116   -7.29505
       H   -19.23215   -8.18601   -6.28170
       O   -19.15723   -7.66725   -7.10270
      H1   -18.50741   -6.89042   -6.92213
       H   -17.13190   -5.62617    1.53821
       O   -16.24523   -6.06559    1.66156
      H1   -15.95591   -6.48737    0.80787
       H   -14.68330  -14.59240   -4.34421
       O   -14.87171  -15.37336   -3.86890
      H1   -14.03349  -15.63348   -3.48371
       H   -17.36474   -9.92056   -7.61296
       O   -16.46414   -9.81757   -7.25721
      H1   -16.14516   -8.93623   -7.51257

