75
frame 6 | Written by MDAnalysis XYZWriter (release 2.4.3)
       H     2.42661    4.20333  -10.61986
       O     2.90517    3.44704  -10.20740
      H1     3.35659    3.76759   -9.47027
       H    -1.13329    4.17937  -14.33550
       O    -1.58459    4.87694  -13.90384
      H1    -1.69632    4.46306  -13.02426
       H     1.54142    2.78697  -15.36475
       O     0.76495    3.24707  -14.94956
      H1     0.39058    2.65868  -14.28190
       H     0.55361    2.33060  -19.00847
       O     1.26453    2.58931  -19.55151
      H1     1.42520    3.49589  -19.34828
       H     1.66839    2.40439   -9.57771
       O     0.93031    1.75278   -9.49137
      H1     0.65372    1.59207  -10.45791
       H     5.01138    3.09719  -14.33156
       O     4.90259    2.12513  -14.22116
      H1     5.32246    1.51972  -14.84450
       H     0.98567    6.15006  -11.21399
       O     1.67054    5.61287  -11.56781
      H1     1.60731    5.60233  -12.52577
       H     0.98394   -0.33577  -15.39588
       O     1.19090   -0.39060  -16.33362
      H1     1.83017    0.32678  -16.44071
       H     4.62114    5.46098  -12.95010
       O     4.72595    4.57021  -12.52304
      H1     3.85412    4.47326  -12.07733
       H     2.19905    6.36341  -14.07284
       O     1.30649    5.99927  -14.33611
      H1     1.31743    5.01770  -14.61682
       H     0.04761    1.00969  -12.69110
       O    -0.35707    1.88112  -12.68370
      H1    -1.31509    1.91057  -12.40155
       H    -0.44776    8.60122  -15.74752
       O     0.17833    8.04379  -16.26269
      H1     0.36950    7.26089  -15.68088
       H     3.71544    1.61817  -13.04811
       O     3.02732    1.14091  -12.47637
      H1     2.76104    1.76548  -11.76763
       H    -3.36936    3.27655  -11.51173
       O    -2.59808    3.82986  -11.51079
      H1    -3.09913    4.64368  -11.20080
       H    -3.80639    0.29446  -11.68420
       O    -3.10888   -0.22770  -12.11908
      H1    -2.31280   -0.20243  -11.55717
       H    -1.54337    3.16924  -17.13430
       O    -0.62497    3.26792  -17.41437
      H1    -0.07172    3.35791  -16.64783
       H     1.55408   -0.90110  -13.02071
       O     0.69554   -0.48099  -13.36686
      H1     0.04504   -1.18364  -13.35926
       H    -3.52296    6.09608  -16.31815
       O    -3.99387    5.32487  -15.89743
      H1    -3.55140    5.31504  -14.97911
       H    -2.48428    0.47632  -15.10151
       O    -3.36170    0.73281  -14.68590
      H1    -3.26556    0.52788  -13.77506
       H    -3.35531    2.28028  -15.88589
       O    -3.24726    2.78223  -16.68256
      H1    -3.51705    3.66733  -16.40958
       H    -0.47485   -0.16599  -16.56988
       O    -1.41985   -0.14589  -16.61747
      H1    -1.63957   -1.00289  -16.22437
       H     4.97069    3.96508  -16.91808
       O     4.26307    3.50462  -17.48338
      H1     3.62038    4.15872  -17.83888
       H    -1.86690    5.43286  -19.06580
       O    -0.92025    5.68122  -19.06547
      H1    -0.59117    4.87223  -18.63526
       H     3.36145    2.13212  -15.30481
       O     2.83945    1.79425  -16.06784
      H1     3.16596    2.42519  -16.76797
       H     2.43069   -1.62216  -15.70506
       O     3.14773   -2.09693  -15.31899
      H1     3.04095   -1.94100  -14.36024

