75
frame 7 | Written by MDAnalysis XYZWriter (release 2.4.3)
       H    -3.86500    2.90800   -1.84552
       O    -3.54868    2.57122   -2.69609
      H1    -4.35037    2.53127   -3.27734
       H    -1.64264    4.31515    0.48514
       O    -1.08618    3.75755   -0.06478
      H1    -1.04663    2.92021    0.36711
       H    -6.50037    3.23364   -4.58422
       O    -6.21397    2.94790   -3.67505
      H1    -6.71341    2.08824   -3.48128
       H    -1.79674   -2.39698   -5.78103
       O    -2.45994   -2.11342   -5.16502
      H1    -1.97455   -1.93910   -4.34727
       H    -5.22711   -0.84028   -6.85050
       O    -5.48891   -0.33012   -6.09946
      H1    -4.67018    0.04088   -5.68932
       H    -5.34926   -3.39803   -3.83420
       O    -4.58314   -3.97992   -3.99521
      H1    -4.04372   -3.53839   -4.64324
       H    -4.52666    6.36147   -2.82241
       O    -4.78492    6.29213   -1.92762
      H1    -4.65038    5.35564   -1.69269
       H    -4.42512    2.02097    0.55481
       O    -4.22293    1.51670    1.41178
      H1    -4.74816    0.72624    1.19225
       H    -2.48825   -0.22281   -5.41790
       O    -2.76512    0.67685   -5.14215
      H1    -1.99215    1.19677   -5.32786
       H    -2.76123   -0.75666   -2.59999
       O    -1.78293   -0.72727   -2.48240
      H1    -1.51260    0.21236   -2.56816
       H    -4.20268    5.09787   -5.98891
       O    -3.58840    5.45917   -5.29155
      H1    -2.85497    4.83998   -5.11585
       H    -4.68982   -0.82164   -0.35444
       O    -5.08962   -1.09623    0.46354
      H1    -6.03308   -1.20740    0.12503
       H    -8.25884    0.68713   -2.13800
       O    -7.35864    0.67340   -2.54870
      H1    -7.32450   -0.21082   -2.94758
       H    -0.78396    2.51009   -1.31941
       O    -0.60694    1.86664   -2.00424
      H1     0.18764    2.19321   -2.51642
       H    -6.00100   -1.29883   -4.85478
       O    -6.49329   -1.64676   -4.04598
      H1    -7.42760   -1.71180   -4.37863
       H    -7.45976   -2.48965   -0.80072
       O    -7.53578   -1.77897   -0.16911
      H1    -8.07308   -2.16913    0.59893
       H    -7.09211    4.79601   -1.41686
       O    -7.46583    4.63933   -2.30012
      H1    -6.99568    3.92371   -2.75405
       H    -1.57431    0.51092    0.45683
       O    -1.52953    1.32042    1.01897
      H1    -2.44401    1.49092    1.30848
       H    -5.49078    4.16528    0.11030
       O    -4.64923    3.85408   -0.25719
      H1    -4.07874    3.94838    0.49034
       H    -3.78129   -1.59698    3.38440
       O    -3.31867   -1.25451    2.54618
      H1    -4.01404   -1.22044    1.78427
       H    -2.03972    3.50286   -4.01583
       O    -1.47231    4.24149   -4.34585
      H1    -1.52436    5.00726   -3.74003
       H     0.03347   -1.24918   -0.04490
       O     0.50583   -0.80256   -0.72612
      H1    -0.22410   -0.70415   -1.35621
       H    -5.49319    0.17268   -2.07125
       O    -4.50021   -0.00419   -1.96640
      H1    -3.99119    0.77551   -2.22823
       H    -7.97215    0.03115   -0.16693
       O    -8.44602    0.73779    0.30044
      H1    -8.27272    1.62920   -0.02405
       H    -4.62787   -4.28580    0.15795
       O    -4.90198   -4.05361    1.01852
      H1    -5.11979   -3.13980    0.86046

