75
frame 7 | Written by MDAnalysis XYZWriter (release 2.4.3)
       H    -6.05513    5.62417  -18.06354
       O    -6.23218    6.19025  -17.28781
      H1    -5.35726    6.23634  -16.82313
       H    -6.56917    0.75653  -15.66022
       O    -6.62197    1.45307  -14.97150
      H1    -6.95858    2.18420  -15.48899
       H    -3.76554   -2.11042  -18.19776
       O    -3.30310   -2.54000  -17.41354
      H1    -3.73294   -2.05619  -16.67322
       H   -10.16842    5.22104  -18.88920
       O   -10.79819    5.15212  -18.12470
      H1   -10.62186    5.99301  -17.71561
       H    -4.57651   -0.10117  -15.50957
       O    -4.79374   -1.05275  -15.49726
      H1    -5.29778   -1.27473  -14.65186
       H    -7.38436   -3.18773  -18.06118
       O    -7.65411   -3.35112  -19.00569
      H1    -7.09436   -4.12151  -19.28719
       H    -2.49460    1.83954  -19.26675
       O    -3.46881    1.82769  -19.32657
      H1    -3.70767    2.58929  -18.79382
       H    -7.29525   -2.75199  -13.27774
       O    -6.70624   -2.01767  -13.36810
      H1    -6.93448   -1.44122  -12.63020
       H    -9.75951   -2.32413  -16.26673
       O    -9.28906   -2.95596  -15.76343
      H1    -9.72264   -3.01337  -14.92553
       H    -2.22521   -4.55863  -15.09351
       O    -2.96282   -4.81186  -15.69378
      H1    -3.47122   -4.07188  -16.10836
       H   -11.03623    2.87917  -16.89440
       O   -10.23432    2.42300  -16.69201
      H1   -10.47074    1.71860  -16.06915
       H    -9.70574    0.02664  -19.35365
       O    -9.29746    0.84899  -19.04980
      H1    -9.73467    1.11481  -18.21111
       H    -8.11257    0.05169  -18.22237
       O    -7.44091   -0.34031  -17.59725
      H1    -6.98322   -1.07995  -17.93489
       H    -1.55307    4.07502  -16.74352
       O    -0.57457    3.99927  -16.74042
      H1    -0.18513    3.92745  -15.83733
       H    -8.50820    0.21368  -13.78016
       O    -9.32104    0.53382  -13.45118
      H1    -9.22807    1.39285  -13.04703
       H    -3.50936    6.80943  -15.56265
       O    -3.81037    6.04823  -15.03437
      H1    -2.99805    5.77220  -14.51786
       H    -7.52316    4.74840  -16.57140
       O    -7.54781    3.85787  -16.15909
      H1    -8.42101    3.46223  -16.29324
       H    -2.72760    0.59634  -16.67834
       O    -3.24160    1.16001  -16.06974
      H1    -2.71740    1.20642  -15.22825
       H    -3.34840    2.80682  -16.58945
       O    -3.27564    3.71523  -16.95111
      H1    -3.79746    4.36654  -16.48368
       H    -0.78254   -0.58911  -17.16706
       O    -1.57465   -0.35430  -17.60112
      H1    -2.26168   -0.98961  -17.55942
       H   -11.56220   -1.23032  -17.75965
       O   -11.54242   -1.55672  -16.85089
      H1   -12.16655   -2.28329  -16.87181
       H    -5.73847    1.07410  -19.47700
       O    -6.29217    1.84251  -19.71162
      H1    -7.20500    1.58084  -19.57573
       H    -1.85120    5.79135  -19.36221
       O    -0.99029    6.04083  -19.11487
      H1    -0.69031    5.43977  -18.44331
       H    -7.48122   -2.86650  -16.02693
       O    -6.62372   -3.17955  -16.35683
      H1    -5.96159   -2.38168  -16.18472
       H    -7.71861    4.87957  -14.62546
       O    -7.94677    5.07135  -13.71368
      H1    -7.20448    5.69239  -13.41495

