75
frame 7 | Written by MDAnalysis XYZWriter (release 2.4.3)
       H     8.09429    9.80660   10.84378
       O     8.54030    8.99113   10.55033
      H1     8.01074    8.82285    9.74622
       H     5.84987    3.43377   10.98497
       O     4.98086    3.01563   10.77627
      H1     4.45306    3.19875   11.55677
       H     2.14093    3.55865    9.20895
       O     2.66623    4.17729    9.75626
      H1     3.51298    3.64946    9.94077
       H     2.95355    6.46554    6.73454
       O     3.35191    6.14131    5.93835
      H1     4.18697    5.70198    6.23941
       H    10.29582    9.76151   10.83895
       O    10.90831   10.34940   11.23960
      H1    11.46092   10.76283   10.55372
       H     6.31448    5.55134    5.19781
       O     5.80770    5.01205    5.86157
      H1     6.14526    5.40644    6.66866
       H     9.61400    7.78374    5.88757
       O     8.87844    7.17684    5.73092
      H1     9.29231    6.37235    5.52062
       H     4.67848    6.47220   14.16672
       O     5.05252    6.41185   13.28631
      H1     5.54766    7.22836   13.08424
       H     7.67888    6.71976    4.28584
       O     7.17538    6.18370    3.65706
      H1     7.87139    6.03359    2.89978
       H     7.97345    8.26093    7.34762
       O     7.40589    8.54212    8.08369
      H1     7.27600    9.49039    8.12384
       H    10.25455   10.22286    6.57153
       O    10.35935    9.50947    5.91212
      H1    10.24256    9.95920    5.04250
       H     6.89309    6.86479    8.61004
       O     6.49920    5.99269    8.41933
      H1     5.65395    6.10527    8.87677
       H     7.51538    4.38795   13.77373
       O     7.67588    5.35214   13.66681
      H1     6.75287    5.61689   13.57330
       H    10.62542    6.44458   10.94068
       O    10.85385    7.34114   10.71715
      H1     9.98378    7.71772   10.58911
       H     6.37727   10.14852    3.49832
       O     6.56382    9.55174    4.26026
      H1     5.95140    8.85290    4.20506
       H     4.96989   10.83766    5.90332
       O     5.16720   11.78706    6.18335
      H1     5.92321   11.79198    6.74423
       H    11.83883    6.86735    9.25964
       O    12.17959    6.62334    8.38199
      H1    11.38347    6.85848    7.85675
       H     7.89617   11.68095    8.14584
       O     7.00767   11.35987    8.29482
      H1     6.76842   11.49668    9.20984
       H     2.77015    7.33655   12.36912
       O     2.97920    8.26606   12.12495
      H1     3.89563    8.31632   12.30309
       H     2.93494    7.44733    8.65944
       O     2.10416    7.49028    8.21030
      H1     2.29255    8.22916    7.59162
       H     3.57189    5.82305    9.84899
       O     4.15936    6.56038    9.70957
      H1     4.22903    7.04032   10.53835
       H     6.31330    9.13190   12.89610
       O     5.94875    8.74982   12.11519
      H1     5.88559    9.47807   11.47952
       H     8.43698    2.68462   10.17078
       O     9.14425    2.18157    9.75318
      H1     8.81467    1.22670    9.72712
       H     4.22487    7.12356    4.61725
       O     4.61805    7.52311    3.83809
      H1     5.37810    6.98675    3.66991
       H     6.99733    5.10629   10.07654
       O     7.44179    4.43302   10.62819
      H1     7.63331    4.91847   11.43758

