75
frame 8 | Written by MDAnalysis XYZWriter (release 2.4.3)
       H    -2.78534   -8.21639   -0.21272
       O    -3.26388   -8.60495    0.53157
      H1    -3.28755   -7.84471    1.21177
       H     0.74186   -8.23497    1.24768
       O     0.71215   -7.94625    0.34987
      H1     1.61591   -7.69871    0.11742
       H    -4.91224   -7.26157   -1.57921
       O    -5.16747   -8.16989   -1.23345
      H1    -4.56037   -8.37907   -0.48096
       H    -1.05769   -7.91490   -3.03580
       O    -0.53692   -8.44405   -3.71025
      H1    -1.25710   -8.66773   -4.34704
       H     1.41457   -7.72230   -3.82245
       O     2.03049   -7.10620   -3.45202
      H1     2.94211   -7.47627   -3.57494
       H    -2.40825   -4.20937   -4.38132
       O    -2.69933   -4.59634   -5.25925
      H1    -2.09994   -4.15075   -5.90451
       H    -0.43920   -6.07960   -5.22876
       O    -0.01949   -5.53898   -4.51958
      H1     0.84756   -5.90549   -4.33458
       H     2.39285   -6.42400    3.42965
       O     1.85256   -7.23628    3.47253
      H1     1.97875   -7.63829    4.33069
       H     0.19313   -4.94079    0.70745
       O     0.00516   -4.24193    0.03058
      H1     0.83383   -3.97370   -0.36518
       H    -0.76473  -12.37127   -4.08018
       O    -0.17770  -11.89609   -3.46852
      H1    -0.67226  -11.80225   -2.66666
       H     2.61070   -4.48381   -1.37624
       O     3.01778   -5.23411   -1.78861
      H1     2.39209   -5.71353   -2.33735
       H    -1.64905   -6.26290   -0.94800
       O    -1.41744   -7.17087   -1.20719
      H1    -0.65482   -7.29009   -0.71526
       H     0.40606   -9.49492   -2.29390
       O     0.36547   -9.93557   -1.44370
      H1     0.66109   -9.21399   -0.82720
       H    -2.67083   -9.81955    1.68869
       O    -2.46652  -10.69333    2.12770
      H1    -3.21137  -11.16680    1.86683
       H    -2.34310   -6.42018    2.33179
       O    -3.24567   -6.77508    2.42408
      H1    -3.35240   -6.99180    3.35710
       H    -1.71000   -4.26022   -0.52078
       O    -2.51373   -4.72235   -0.70504
      H1    -2.88583   -4.43092   -1.51615
       H     3.63670   -8.05983   -0.39391
       O     3.30655   -7.28121    0.07920
      H1     3.35348   -6.56137   -0.59295
       H     0.26799   -9.89499    3.54054
       O     0.47907  -10.26593    2.72283
      H1    -0.35212  -10.57248    2.32813
       H    -1.35642   -1.84936    1.56380
       O    -0.39873   -1.98966    1.47448
      H1    -0.32120   -2.76839    0.89297
       H     1.83015  -11.30571   -2.65503
       O     2.64561  -11.70443   -2.36487
      H1     2.88602  -12.25812   -3.13789
       H    -0.70654   -5.45328    3.11740
       O    -0.47602   -6.00734    2.39299
      H1     0.36278   -6.44367    2.65063
       H    -3.94736   -9.43154   -2.60560
       O    -3.62348  -10.15627   -3.17034
      H1    -3.00219  -10.75383   -2.64677
       H    -2.81129  -11.77774   -0.97169
       O    -2.03941  -11.43984   -1.44667
      H1    -1.42739  -10.94363   -0.90483
       H     4.64214  -10.17331   -0.51087
       O     4.18951   -9.51621   -1.14589
      H1     3.53842  -10.03897   -1.62028
       H    -4.24958   -4.69781    0.46206
       O    -5.09653   -4.50602    0.79165
      H1    -5.09129   -3.57900    0.99186

