75
frame 8 | Written by MDAnalysis XYZWriter (release 2.4.3)
       H    -6.76834   -8.88879    4.82843
       O    -6.68283   -8.51581    5.68209
      H1    -7.45727   -8.10368    5.98642
       H    -6.78996   -7.00406    8.75048
       O    -7.65357   -7.42617    8.61489
      H1    -7.70778   -8.34465    8.95584
       H    -4.21453   -2.63242   11.74116
       O    -4.57948   -1.77185   11.96505
      H1    -3.79419   -1.30221   12.29924
       H    -7.14066   -5.24716    5.48914
       O    -7.74132   -4.85116    4.81639
      H1    -7.30427   -3.99966    4.60897
       H    -1.07932   -6.13345    5.83489
       O    -0.95642   -6.98697    6.34400
      H1    -1.79131   -7.43559    6.26276
       H    -9.07792   -9.94292   10.29085
       O    -8.38677   -9.99224    9.61203
      H1    -8.36304  -10.89192    9.32056
       H    -3.58459   -4.83290   12.02278
       O    -3.12037   -4.06169   11.70039
      H1    -3.11783   -4.15208   10.75934
       H    -9.12067   -5.46305    7.81792
       O    -8.92019   -4.52048    7.63239
      H1    -8.76922   -4.53199    6.67152
       H    -7.15878   -3.53553   11.01663
       O    -7.32819   -4.04401   11.82305
      H1    -6.81718   -3.60863   12.52749
       H    -0.79308   -4.34388    7.81793
       O    -1.34865   -3.67692    7.39460
      H1    -0.88573   -2.93485    6.95022
       H    -7.53426   -3.75325    8.99703
       O    -6.85220   -3.15400    9.33285
      H1    -5.98278   -3.62594    9.17541
       H    -2.77310   -6.70089    9.44830
       O    -1.86996   -7.01162    9.65208
      H1    -1.38771   -6.25997    9.11273
       H    -5.03878   -7.51663    5.02813
       O    -4.51859   -6.76931    4.77145
      H1    -5.06305   -6.39600    4.02598
       H    -2.80462   -8.95982   12.29218
       O    -1.94982   -8.54437   12.05388
      H1    -2.11542   -8.12802   11.11863
       H    -5.28084   -6.82751   10.32917
       O    -4.89892   -6.79198    9.45106
      H1    -4.77384   -7.68165    9.12730
       H    -3.22662   -9.19903    5.70028
       O    -2.81311   -8.86256    6.49900
      H1    -2.24065   -9.63240    6.86060
       H    -9.18541   -5.35497   12.20978
       O    -9.95379   -5.84476   12.46696
      H1   -10.48814   -5.14086   12.87985
       H    -0.01087   -9.30116    9.91350
       O    -0.14161   -8.93608    9.01308
      H1    -0.78866   -8.20440    9.00232
       H    -4.26988   -9.12880    7.61425
       O    -5.02222   -9.21717    8.21751
      H1    -5.80662   -9.02888    7.68277
       H    -4.13119   -4.05217    8.02049
       O    -4.31756   -4.22202    8.94362
      H1    -4.62860   -5.12669    8.79885
       H    -5.11074   -9.90032   12.44902
       O    -4.52659   -9.21188   12.09518
      H1    -4.77882   -8.35157   12.32744
       H    -4.89271   -4.08128    5.79655
       O    -4.96860   -4.78747    6.40007
      H1    -5.08925   -5.61365    5.92442
       H    -8.60805   -7.40269    7.28104
       O    -9.05600   -7.11935    6.41309
      H1    -9.44986   -7.84942    5.92452
       H    -3.02020  -11.48619    8.29561
       O    -3.93808  -11.82874    8.51134
      H1    -4.42366  -10.99559    8.44370
       H    -5.46208   -5.60062   12.60093
       O    -4.75561   -6.24230   12.52635
      H1    -4.31593   -6.25325   13.41518

