75
frame 8 | Written by MDAnalysis XYZWriter (release 2.4.3)
       H     8.39355   18.78377   14.10170
       O     8.65309   18.08062   13.46545
      H1     8.60962   17.26687   14.02141
       H     5.42105   12.88482   14.85885
       O     5.93550   12.43518   15.57636
      H1     6.00067   11.53080   15.19348
       H     2.65189   16.25299   15.67991
       O     2.46126   16.46463   16.63386
      H1     3.08658   16.04132   17.18481
       H    12.27324   18.70621   15.88314
       O    12.74945   18.21856   15.21946
      H1    13.37760   17.67222   15.72721
       H     6.68443   18.59086   15.58920
       O     6.21948   19.26028   15.04159
      H1     5.33101   19.44110   15.43790
       H     3.52111   14.61644   13.67330
       O     3.72511   13.66759   13.55447
      H1     4.14131   13.51574   12.67665
       H     4.78930   19.02251   10.15960
       O     5.22992   19.54260    9.46954
      H1     5.64024   20.21360    9.99159
       H     4.45045   17.64509   12.05776
       O     3.80082   18.35496   11.81851
      H1     3.32985   17.88200   11.13498
       H     6.73572   17.66275   12.91389
       O     6.18070   16.89619   12.96159
      H1     6.11645   16.57088   12.02531
       H     7.35946   15.98477   13.91148
       O     8.02532   15.80798   14.55377
      H1     8.29574   14.85621   14.48445
       H    10.56695   17.62650   11.75748
       O    10.83485   16.96033   11.14021
      H1    11.84046   17.05269   11.02139
       H     3.72546   14.31226   19.21554
       O     3.43210   15.19702   19.11327
      H1     3.21575   15.56929   19.96107
       H    12.15954   19.22276   18.37252
       O    12.16598   18.22705   18.39454
      H1    11.23552   17.83846   18.39776
       H     9.54094   13.03486   15.27523
       O     8.72351   13.29476   14.88905
      H1     8.00819   12.91321   15.40779
       H     6.69563   19.25245    8.58678
       O     7.43823   18.83864    8.11892
      H1     7.34685   19.09239    7.18938
       H     0.65116   17.38254   13.61183
       O    -0.11870   17.89040   13.86814
      H1    -0.78161   17.19595   13.94777
       H     0.54575   18.59559   15.62408
       O     1.31047   18.75362   16.26904
      H1     1.73337   17.84846   16.39873
       H     8.82705   13.67815   18.08495
       O     7.91074   13.50488   17.81996
      H1     7.37692   14.26984   18.00207
       H     8.83219   19.13935   19.90836
       O     7.91809   19.34803   19.66240
      H1     7.86656   19.55736   18.74412
       H     6.24585   16.72720   19.63080
       O     5.59477   16.80574   18.93052
      H1     4.94124   16.08045   19.04490
       H     7.52113   16.49982   16.28459
       O     7.38328   17.32849   16.75309
      H1     6.58893   17.12533   17.28133
       H     6.10645   15.93699    9.90728
       O     5.44598   15.62817   10.59329
      H1     4.59736   15.84621   10.31743
       H     9.66204   16.41646   18.72726
       O     9.58470   17.24687   18.29780
      H1     8.83239   17.31864   17.72355
       H     3.02256   16.99107   13.23969
       O     2.62192   16.27794   13.74781
      H1     2.09562   15.79301   13.10706
       H    10.37799   16.36432   15.10268
       O    11.15878   15.74403   14.92746
      H1    11.84827   16.40426   14.72099

