75
frame 0 | Written by MDAnalysis XYZWriter (release 2.4.3)
       H    14.07006   -7.98516   11.40223
       O    13.45323   -8.14476   10.66594
      H1    13.79824   -7.57357    9.98407
       H    14.55240   -6.61656    4.45469
       O    13.76318   -6.06655    4.55963
      H1    13.38272   -6.37016    5.41839
       H    12.40096   -4.59615    6.75555
       O    13.24751   -4.24519    7.02335
      H1    13.50938   -3.69295    6.32687
       H    14.96996    0.17551   10.97903
       O    14.45030   -0.52738   11.45696
      H1    14.30866   -1.25243   10.83734
       H    18.76949   -4.79813    7.23019
       O    18.58650   -4.08564    7.87319
      H1    17.80855   -4.37742    8.41643
       H    14.88895   -2.27733    8.41262
       O    14.80134   -2.59929    9.32140
      H1    15.50313   -3.23404    9.44987
       H    17.02090   -7.29250    3.99181
       O    16.13166   -7.78215    3.98245
      H1    16.07931   -8.08753    4.87314
       H    14.19431   -4.35808    4.51656
       O    14.35875   -3.36685    4.55234
      H1    15.11452   -3.29997    5.13016
       H     9.58693   -6.31345    4.75340
       O    10.25422   -5.71660    4.36346
      H1    10.67385   -6.19298    3.62111
       H    17.00148   -1.87989    5.44748
       O    17.11598   -2.84340    5.47047
      H1    17.35224   -3.01627    6.35573
       H    14.06779   -1.04719    5.89847
       O    14.06855   -1.23713    6.80674
      H1    13.20126   -1.54680    7.00022
       H    15.91640   -5.24383    9.13655
       O    16.68083   -4.83199    9.51515
      H1    17.12383   -5.58120    9.90808
       H    13.99867   -5.87936    8.20027
       O    14.59688   -6.50360    8.64400
      H1    14.88892   -7.13440    7.91038
       H    12.72443   -2.23363    1.95500
       O    11.99219   -1.85592    2.46287
      H1    11.87245   -2.43032    3.21009
       H     8.53933   -3.60615    2.76455
       O     9.06128   -3.45610    3.58367
      H1     9.69729   -4.17551    3.69496
       H    11.16018   -6.08358    7.13921
       O    11.73333   -6.53819    6.48656
      H1    11.31068   -6.32223    5.63272
       H    10.92591   -1.92257    8.20063
       O    10.22367   -1.56412    7.65520
      H1     9.88626   -2.34670    7.19686
       H    11.59733   -0.91348    9.92831
       O    11.22003    0.03671    9.99898
      H1    10.43252    0.06935    9.38120
       H     9.36848   -6.04397    8.45014
       O    10.27445   -5.90985    8.57979
      H1    10.56373   -6.50385    9.29710
       H    15.26705   -9.24513    6.88047
       O    15.62175   -8.31137    6.83936
      H1    16.58127   -8.31172    6.97800
       H     8.43166   -4.36394    6.35777
       O     9.07489   -3.69033    6.17014
      H1     8.94147   -3.56148    5.19331
       H    10.42918   -0.58317    6.10070
       O    10.59758    0.11026    5.51212
      H1    10.01999   -0.08516    4.73172
       H    11.54269   -3.24693    9.93033
       O    11.98260   -2.42790    9.54155
      H1    12.88101   -2.71186    9.45545
       H    10.13851   -4.84902    9.99997
       O    10.42705   -4.47341   10.80762
      H1     9.64173   -4.26842   11.43229
       H    11.08262   -8.08887    6.29595
       O    10.91629   -9.02468    5.96750
      H1    11.55916   -9.55803    6.43371

