75
frame 8 | Written by MDAnalysis XYZWriter (release 2.4.3)
       H    12.22684  -15.38515   11.74960
       O    11.97075  -15.16718   10.85744
      H1    11.20486  -15.73825   10.62147
       H    16.40770  -14.36529   17.38895
       O    16.48058  -15.31130   17.52250
      H1    17.31969  -15.63840   17.21781
       H    13.61962  -18.72712   10.73505
       O    13.72153  -19.22101   11.57219
      H1    13.51849  -20.12511   11.42648
       H    16.04277  -18.82739   16.38256
       O    15.20625  -18.82039   15.93546
      H1    15.11938  -19.73871   15.57094
       H    12.10880  -14.33009   14.20043
       O    11.37054  -13.73760   14.48240
      H1    10.53880  -14.04851   14.11407
       H    18.07232  -15.15807   15.54498
       O    18.63865  -15.65246   16.10708
      H1    18.87302  -16.49302   15.64102
       H    16.24209  -16.72626   13.57504
       O    16.60196  -16.76889   12.69334
      H1    17.58072  -16.78422   12.80610
       H    10.02987  -16.10800   13.51391
       O    10.60583  -16.82057   13.54803
      H1    10.33000  -17.57140   13.02148
       H    19.80383  -14.66620   12.15369
       O    19.66162  -14.71656   13.09498
      H1    18.82235  -14.23471   13.24356
       H    15.47637  -12.44991   17.05552
       O    16.35563  -12.76267   16.69653
      H1    16.90120  -11.97549   16.73069
       H    16.89528  -13.38590   15.19504
       O    17.22065  -13.73347   14.32787
      H1    16.55295  -13.37628   13.70543
       H    16.58848  -18.45945   12.19952
       O    16.41579  -19.32080   11.75296
      H1    15.46747  -19.43198   11.65185
       H    13.96465  -15.64600   13.87830
       O    13.43813  -15.05492   13.30340
      H1    13.99459  -14.18589   13.06346
       H    16.62879  -18.48624    8.66498
       O    17.08687  -19.29480    9.02064
      H1    16.81509  -19.33311    9.94513
       H    13.30280  -13.65778   17.97170
       O    13.58020  -12.75707   17.77545
      H1    13.38411  -12.50508   16.86544
       H    18.59786  -18.49605    9.59048
       O    19.39241  -18.01982    9.97950
      H1    19.16390  -18.01467   10.91326
       H    14.04676  -15.34277   19.56597
       O    13.78662  -15.47453   18.65337
      H1    14.63102  -15.34443   18.22338
       H     9.86738  -18.19031   16.50507
       O    10.73993  -18.44074   16.16498
      H1    10.87022  -17.92915   15.33541
       H    12.95500  -16.61192   10.06374
       O    13.58850  -17.17999    9.62631
      H1    13.15906  -17.87970    9.04953
       H    15.85332  -13.76213   11.41448
       O    16.61913  -14.28569   11.63437
      H1    16.30920  -14.98189   12.21086
       H    18.88362  -16.04527   10.05359
       O    18.85326  -15.10629   10.24170
      H1    18.01439  -14.94044   10.66325
       H    15.66622  -15.95050   15.85612
       O    15.29866  -16.28733   15.05183
      H1    15.08158  -17.20494   15.20909
       H    19.42093  -16.42460   12.83340
       O    19.27779  -17.39358   12.76550
      H1    19.50807  -17.76670   13.64798
       H    13.97666  -18.64544   17.39687
       O    13.39015  -18.45272   18.18992
      H1    12.90073  -17.66753   17.87187
       H    11.11328  -20.09672   13.57449
       O    11.08158  -19.54438   12.79356
      H1    12.02106  -19.20684   12.65337

