75
frame 8 | Written by MDAnalysis XYZWriter (release 2.4.3)
       H     5.23452   -8.29002    9.92708
       O     5.51040   -8.46265   10.86330
      H1     6.08705   -9.25600   10.78111
       H     7.37336  -10.93329   10.82737
       O     6.79757  -10.76242   10.04924
      H1     7.39079  -10.43871    9.33652
       H     1.33279   -6.81350   14.42764
       O     2.02314   -6.51527   15.03767
      H1     2.83318   -6.82366   14.71449
       H     4.91719  -13.96251   12.55664
       O     5.77529  -13.92754   12.97595
      H1     6.41174  -14.37337   12.38663
       H     8.56668   -8.40188   13.96187
       O     9.15213   -7.69638   13.55170
      H1     9.15995   -7.90276   12.61235
       H     6.45893   -7.19770   11.06114
       O     6.84858   -6.31441   11.17711
      H1     7.32814   -6.12456   10.33676
       H     0.60426  -10.85497   16.25198
       O     0.49441  -10.09141   15.64665
      H1    -0.32135   -9.56138   15.81270
       H     6.80267  -11.05168   19.30945
       O     6.38633  -10.82026   18.47076
      H1     6.82284  -10.03765   18.08306
       H     4.70002  -10.39138   14.52862
       O     5.04688   -9.90446   13.74689
      H1     4.39105   -9.91387   13.02289
       H    -0.30883   -9.57838   11.83521
       O     0.22467  -10.16277   11.24820
      H1     1.06239  -10.19571   11.66171
       H     3.55079  -10.36076   16.64882
       O     4.10773  -10.99070   16.15346
      H1     4.38813  -11.57958   16.83710
       H     7.82327  -11.34969   13.49192
       O     7.58020  -11.90441   12.72092
      H1     6.74947  -12.42686   12.93516
       H     4.38458   -6.72465   12.78557
       O     4.35391   -7.07550   13.67747
      H1     4.66691   -7.99506   13.63958
       H     4.43533   -7.16667   18.52893
       O     4.17922   -6.72597   17.71449
      H1     5.07173   -6.38725   17.48943
       H     3.82676   -9.75010   11.26308
       O     3.20916  -10.19592   11.83261
      H1     3.42023  -11.11289   11.81771
       H     3.39458  -12.86552   15.03499
       O     2.62677  -13.09882   14.46821
      H1     2.98899  -13.06114   13.52740
       H     8.24610   -8.01299   17.64697
       O     8.26076   -8.91063   17.28901
      H1     9.10704   -9.37737   17.24420
       H     6.67565  -12.81695   17.89802
       O     6.62026  -13.76086   17.72292
      H1     5.70422  -13.86882   17.52778
       H     7.91618   -9.37659   15.46375
       O     7.73231   -9.74515   14.58233
      H1     6.77782   -9.89052   14.53788
       H     3.25016  -14.38900   17.18297
       O     4.02106  -13.96659   16.75095
      H1     4.35552  -14.54321   16.02862
       H     6.46537   -6.76305   14.36674
       O     7.04113   -6.40714   15.04847
      H1     7.86744   -6.80185   14.79203
       H     2.50486  -13.29499   11.67312
       O     3.45239  -13.12096   11.78449
      H1     3.84836  -13.14693   10.89993
       H     5.28327  -15.32186   13.99206
       O     4.89589  -15.67784   14.77697
      H1     4.26939  -16.31942   14.55619
       H     1.88114   -9.08214   16.65715
       O     2.65724   -9.06285   17.22496
      H1     2.96777   -8.14073   17.22439
       H     1.16642  -13.23190   16.81135
       O     1.27891  -12.34033   17.16393
      H1     2.23879  -12.12753   17.00963

