75
frame 7 | Written by MDAnalysis XYZWriter (release 2.4.3)
       H   -10.49784    9.25895  -12.02893
       O   -10.10930    8.83162  -12.76499
      H1   -10.19301    7.87245  -12.57757
       H    -7.62536   11.65614  -12.71358
       O    -7.71728   12.60386  -12.79470
      H1    -7.99632   12.98220  -11.90344
       H    -3.91815   13.89110  -11.16148
       O    -4.26448   13.02800  -10.93636
      H1    -4.27188   12.48382  -11.70987
       H   -13.76127   12.43791   -9.93227
       O   -13.84223   13.15324   -9.25773
      H1   -14.73540   13.46699   -9.28381
       H    -9.59472   11.58343   -8.42807
       O    -9.83344   10.66242   -8.47970
      H1   -10.08697   10.42868   -7.57946
       H   -10.68211   17.37912   -9.66943
       O   -10.42478   17.23407  -10.56397
      H1    -9.48891   17.26449  -10.51957
       H   -10.54373    9.50284   -9.46800
       O   -10.87368    8.65782   -9.93404
      H1   -11.81086    8.91090  -10.14944
       H   -11.57368   15.88131  -13.78428
       O   -11.63086   14.95642  -13.58047
      H1   -10.95411   14.32283  -13.94928
       H    -5.80844   14.24093  -10.43315
       O    -6.61292   14.74236  -10.20461
      H1    -6.26140   15.63107  -10.11590
       H    -8.64535   18.50540  -13.22568
       O    -8.22875   18.44645  -12.35800
      H1    -7.53328   17.77023  -12.52097
       H    -9.74423   16.56253   -7.03074
       O   -10.42689   16.52404   -7.66734
      H1   -11.10490   17.13179   -7.33065
       H    -6.21648   10.85004   -8.97546
       O    -5.50028   11.38942   -8.43667
      H1    -5.44037   12.21994   -8.92229
       H    -7.37850    9.88014  -11.76437
       O    -7.60455    9.77949  -12.68905
      H1    -8.53506    9.41268  -12.76291
       H    -7.51588   17.59715   -6.20032
       O    -7.71803   16.64385   -6.01744
      H1    -7.02430   16.09125   -6.41212
       H   -13.31254   16.01906  -11.52855
       O   -14.04743   15.60635  -11.04135
      H1   -13.56755   15.03114  -10.47644
       H    -5.66565   16.94279   -8.43331
       O    -5.95399   17.36900   -9.23172
      H1    -5.18551   17.72299   -9.55231
       H    -6.06797   14.54355   -6.99808
       O    -5.76018   15.44687   -7.14100
      H1    -5.00456   15.73526   -6.55531
       H    -9.79951   13.30329   -8.29793
       O    -9.53413   13.06435   -7.41269
      H1   -10.27017   13.45887   -6.92490
       H    -6.26450   13.68815  -13.20792
       O    -5.59177   14.14751  -13.71190
      H1    -5.49707   15.08531  -13.42097
       H   -12.69905   13.85550   -7.56374
       O   -12.01278   14.28598   -6.97120
      H1   -11.52097   14.89967   -7.53017
       H    -6.12908   12.32414   -7.18228
       O    -6.65604   12.95766   -6.72711
      H1    -7.54776   13.01003   -7.12443
       H    -7.37175    8.94392   -9.90444
       O    -7.51564    9.92605   -9.94286
      H1    -8.33704   10.08671   -9.41778
       H   -11.56398   14.88946  -11.96433
       O   -11.42235   14.69706  -11.02969
      H1   -11.07353   15.50778  -10.67231
       H    -9.14694   12.80329  -14.29788
       O   -10.01864   12.73387  -14.70868
      H1   -10.42908   11.83951  -14.66628
       H    -9.94114   13.77418  -10.54927
       O    -9.09453   13.46914  -10.10569
      H1    -8.55784   14.28998  -10.26123

