75
frame 8 | Written by MDAnalysis XYZWriter (release 2.4.3)
       H     3.08708   10.87012   18.34759
       O     3.19658    9.94156   18.18078
      H1     4.13522    9.72845   18.06626
       H     5.98936    5.61193   17.67833
       O     5.17688    6.11855   17.74988
      H1     4.97483    6.40706   16.86201
       H    -1.36021    3.25029   14.03932
       O    -1.47869    3.30097   15.01043
      H1    -0.62248    3.05600   15.40864
       H    -3.96300    3.08313   17.50799
       O    -3.26993    3.80909   17.45883
      H1    -2.93636    3.74411   16.56314
       H     3.28484    5.74827   19.00398
       O     2.94444    5.76161   19.92633
      H1     3.02963    6.68540   20.15395
       H     3.56766    6.66399   15.09134
       O     4.34676    7.20184   15.33425
      H1     3.92476    8.09765   15.51023
       H     2.85943    5.11267   13.73873
       O     3.67888    4.60743   13.87268
      H1     3.55330    4.04478   14.70448
       H     0.52557    1.26295   16.35568
       O     0.61559    2.22187   16.58869
      H1     0.17894    2.39185   17.42906
       H     4.78885    6.98724   13.53254
       O     5.11700    7.01290   12.63754
      H1     6.05002    7.26973   12.73464
       H     2.88670   10.20128   15.12006
       O     2.65895    9.43313   15.64857
      H1     2.84665    9.73663   16.53425
       H     5.99566    1.02415   13.55862
       O     5.80207    1.79506   14.15153
      H1     4.87896    1.68026   14.41905
       H     6.41328    3.74676   13.96110
       O     6.68893    4.58351   13.61567
      H1     5.82530    5.05664   13.60114
       H    -2.09476    6.38301   18.09788
       O    -1.53862    6.84330   17.49706
      H1    -0.77450    7.16653   17.99541
       H    -1.73968    5.07110   15.01520
       O    -2.23882    5.94802   14.97898
      H1    -2.02406    6.44659   15.76762
       H     0.80407    7.10881   16.12401
       O     0.68811    7.63172   15.29722
      H1     1.35125    8.27612   15.34071
       H    -1.53414    3.44555   18.21271
       O    -0.85085    2.89524   18.64474
      H1    -0.46245    3.43321   19.31005
       H     0.84293    4.74207   16.99721
       O     1.65493    5.16829   16.99823
      H1     2.33898    4.51388   17.03116
       H     2.51131    2.71334   16.33576
       O     3.44717    3.01218   16.12103
      H1     3.99656    2.37640   16.65577
       H     1.28486    6.03125   12.41966
       O     1.85413    6.30000   13.09049
      H1     1.36985    6.70311   13.82637
       H     0.27819   10.39948   16.17331
       O    -0.37801   10.96084   16.65055
      H1    -0.47533   11.78974   16.21641
       H    -2.16266    1.66374   15.28855
       O    -2.43105    0.74387   15.30215
      H1    -1.73852    0.25717   15.71058
       H     5.49093    7.87971   18.10351
       O     5.63779    8.82181   17.93571
      H1     6.48124    9.04655   18.37136
       H    -1.84818    6.84872   13.43223
       O    -1.94866    7.26549   12.58212
      H1    -1.74146    8.18202   12.80597
       H     2.48386    3.17311   13.46693
       O     1.71487    2.54675   13.39784
      H1     1.01828    3.04528   12.93049
       H     6.90290    8.34968   14.75415
       O     6.42907    9.10748   15.09329
      H1     5.97566    8.73765   15.88462

