75
frame 8 | Written by MDAnalysis XYZWriter (release 2.4.3)
       H    -5.03519   18.04090    4.55577
       O    -5.84475   17.51638    4.64796
      H1    -5.84001   17.00304    3.84316
       H    -9.18166   16.00025    8.55602
       O    -9.46889   15.85251    7.61907
      H1    -9.06270   16.60153    7.13925
       H    -9.90160   16.31060   12.72829
       O    -9.85052   15.34868   12.54293
      H1   -10.72988   15.05543   12.75739
       H    -7.13703   13.27912    7.44397
       O    -6.85441   14.14094    7.80548
      H1    -7.59710   14.49536    8.35406
       H   -12.88183   16.61006   10.06470
       O   -13.63636   17.21737    9.96286
      H1   -13.73218   17.59949   10.87364
       H    -8.39599   17.46988    4.94433
       O    -8.46160   17.61049    5.90235
      H1    -7.65534   17.99100    6.02788
       H    -4.13359   15.94573    8.06503
       O    -3.60167   15.90203    8.86227
      H1    -3.01965   15.09968    8.62481
       H   -12.28920   17.87371    1.37988
       O   -11.86839   18.25862    2.18111
      H1   -11.25243   17.57419    2.57254
       H   -14.33459   17.40104    6.69160
       O   -14.87350   17.04615    6.00204
      H1   -15.77817   17.28733    6.26453
       H    -9.57292   15.98039    3.43746
       O    -9.89813   16.88687    3.48001
      H1   -10.41528   16.80433    4.28954
       H    -5.55065   19.51215    6.70674
       O    -6.41865   19.23029    7.10694
      H1    -6.94227   20.01525    7.20221
       H   -11.92751   14.19819    9.04370
       O   -11.31145   14.37432    9.75079
      H1   -10.63836   13.65066    9.54529
       H   -10.09984   13.75112    4.56738
       O    -9.80296   14.12342    3.69266
      H1   -10.66692   13.97307    3.24574
       H   -11.80346   12.58531    5.54569
       O   -11.07913   13.07720    5.86472
      H1   -10.42029   12.43459    6.15411
       H   -12.96624   17.48989    8.35074
       O   -12.91962   17.91520    7.48830
      H1   -12.38152   17.29313    6.96084
       H    -5.22193   15.82747   10.24828
       O    -5.57565   16.31448   10.96078
      H1    -5.71514   17.18875   10.61886
       H    -7.22547   15.93309    1.81220
       O    -6.36353   16.13375    2.24163
      H1    -5.91185   16.85378    1.77367
       H    -7.65534   19.17009   11.04323
       O    -8.21698   19.50329   11.70627
      H1    -8.64972   20.25896   11.33325
       H   -10.81387   15.86242    6.25265
       O   -11.45924   16.26845    5.71618
      H1   -11.85518   15.46010    5.28284
       H    -6.37781   13.40171    9.66143
       O    -6.31494   12.62434   10.29569
      H1    -6.56698   11.88403    9.67888
       H    -5.52665   19.58392   10.07535
       O    -6.20188   18.90401   10.01689
      H1    -6.30665   18.81125    9.05314
       H    -7.36675   16.05259   10.36938
       O    -8.23347   15.77358   10.04271
      H1    -8.77096   15.80039   10.82641
       H    -9.54360   11.63626    8.13056
       O    -9.11358   11.67716    7.21417
      H1    -9.41202   10.85663    6.86133
       H    -5.59449   16.43386    5.99258
       O    -5.17087   15.83702    6.65978
      H1    -5.87542   15.16470    6.91654
       H    -9.33053   11.31618   10.21260
       O    -9.95545   11.98148    9.79371
      H1   -10.80752   11.60227    9.93979

