75
frame 0 | Written by MDAnalysis XYZWriter (release 2.4.3)
       H    -6.89018  -16.80739   11.44504
       O    -5.94213  -16.73653   11.39164
      H1    -5.61387  -17.34342   10.75272
       H   -16.88713  -16.41341   17.15747
       O   -16.05264  -16.44954   16.67036
      H1   -15.95556  -17.37383   16.36904
       H   -10.49317  -15.75235   12.43743
       O   -11.30787  -15.36414   12.81452
      H1   -11.73240  -14.84968   12.10141
       H   -11.84301  -14.07578   16.67757
       O   -11.25358  -13.72363   17.38093
      H1   -11.52638  -12.80841   17.67661
       H   -15.10884  -12.32848   16.35889
       O   -15.73549  -13.01344   16.54552
      H1   -15.53074  -13.62192   15.79296
       H   -12.84932  -11.12271    9.99125
       O   -12.12453  -11.59649   10.48050
      H1   -12.49642  -12.46410   10.72876
       H    -9.43168  -17.52026   12.39175
       O    -8.99366  -16.86037   11.87000
      H1    -9.40761  -16.93015   11.01257
       H    -7.57701  -13.40168   12.33256
       O    -7.80627  -14.27145   12.83776
      H1    -8.28282  -14.84750   12.20771
       H   -14.48472  -19.65423   17.64166
       O   -14.14376  -19.53162   16.74168
      H1   -13.61616  -18.73999   16.76615
       H   -12.83029  -15.26884    8.48695
       O   -12.15221  -15.83929    8.92322
      H1   -12.62555  -16.45675    9.52132
       H   -13.61827  -11.66476   14.94317
       O   -13.29832  -12.30967   14.35236
      H1   -12.31676  -12.14795   14.30311
       H   -12.47011  -17.40092   12.77263
       O   -12.42412  -17.83631   13.66884
      H1   -11.61829  -17.44726   14.06156
       H    -9.57606  -15.97295   17.18778
       O    -9.12751  -16.52481   16.61147
      H1    -8.41420  -15.88320   16.17978
       H   -15.43815  -15.91316   11.52766
       O   -15.47978  -14.93792   11.69382
      H1   -15.92239  -14.89089   12.61617
       H    -8.86551  -17.04144    8.87116
       O    -9.72680  -17.38406    9.10473
      H1   -10.35783  -16.62722    8.93639
       H   -13.08065  -19.04660    7.65951
       O   -13.95274  -18.91050    7.22719
      H1   -13.72768  -19.19789    6.29357
       H    -9.45869  -19.11188   14.65150
       O    -9.66741  -18.21879   14.46910
      H1    -9.32346  -17.55771   15.07206
       H   -13.14472  -14.08904   14.95154
       O   -12.62645  -14.79503   15.25623
      H1   -12.04394  -15.00584   14.50504
       H   -12.69643  -14.58372   10.32772
       O   -12.89600  -14.07376   11.08187
      H1   -13.75394  -14.36605   11.43534
       H   -14.32284  -16.37968   17.28381
       O   -13.44388  -16.73641   17.25811
      H1   -13.16243  -16.34782   16.41100
       H   -15.54078  -19.23611   15.80373
       O   -16.15935  -18.80701   15.17570
      H1   -15.77234  -19.10331   14.31776
       H    -9.26828  -13.49215    9.30113
       O    -9.01952  -14.40494    9.58308
      H1    -8.31796  -14.63410    8.96535
       H   -12.44117  -18.63814   10.48974
       O   -12.96898  -17.91169   10.88885
      H1   -13.84350  -18.32459   10.76885
       H   -16.84424  -17.38076   10.74766
       O   -15.96032  -17.79141   10.95454
      H1   -16.11277  -18.76485   11.12999
       H   -17.58883  -14.77063   13.81187
       O   -16.78615  -14.65135   14.28830
      H1   -16.66021  -15.42824   14.88105

