75
frame 7 | Written by MDAnalysis XYZWriter (release 2.4.3)
       H     5.61308   -8.74084   10.01358
       O     5.53368   -9.34905   10.73596
      H1     6.34708   -9.85743   10.66959
       H     1.83337  -13.51038    7.94322
       O     2.27698  -13.01918    8.66403
      H1     2.61557  -12.15863    8.27338
       H     4.29976   -7.76047    6.15591
       O     4.38981   -6.96192    6.73346
      H1     4.49036   -6.32790    6.02602
       H     5.49309   -7.82024    7.84390
       O     6.22298   -8.02506    8.41318
      H1     6.98408   -8.25702    7.84471
       H    -1.21129   -6.01671    5.97530
       O    -0.52726   -6.66564    6.19263
      H1    -1.04958   -7.39097    6.55477
       H     1.73595   -6.80959    3.84245
       O     1.05660   -7.42934    3.54096
      H1     0.80747   -7.81662    4.36604
       H     4.88061   -3.84523    8.48804
       O     5.47694   -3.86190    9.28786
      H1     5.08393   -4.53558    9.82061
       H     2.67321   -2.89365    7.48360
       O     3.28277   -3.61129    7.25510
      H1     2.72870   -4.35573    7.59332
       H     2.81070  -10.66048    3.50194
       O     3.05301   -9.91763    2.95076
      H1     2.40552   -9.15335    3.00775
       H     3.74883   -4.35682    5.27117
       O     4.23181   -4.86164    4.67772
      H1     3.71874   -4.86894    3.81897
       H    -0.22351   -7.70643   13.14938
       O     0.64756   -7.39238   13.15477
      H1     0.92220   -7.24009   12.26896
       H     7.09270   -4.64189    9.29260
       O     7.64390   -5.49634    9.27796
      H1     7.03088   -6.22149    9.07339
       H     0.03386  -10.70018    8.57976
       O    -0.48589  -11.27050    8.02640
      H1    -0.02360  -11.77662    7.36806
       H    -0.08518   -9.60794   12.39785
       O     0.48862  -10.17529   11.80818
      H1     1.45697   -9.99757   12.07118
       H    -1.91450   -9.51790    5.99792
       O    -1.25798   -9.16473    6.62787
      H1    -0.89483   -9.95640    7.14200
       H     2.68906   -5.82899   10.68942
       O     1.74265   -5.84642   10.36349
      H1     1.18940   -5.17630   10.83986
       H     5.69267  -12.06555    6.23155
       O     4.87640  -12.49301    6.61589
      H1     4.98922  -12.42976    7.57955
       H     3.07937   -7.64406    7.75216
       O     2.77974   -8.23033    8.45686
      H1     1.86645   -8.09434    8.66420
       H     4.47708   -4.44729   11.86352
       O     4.46422   -5.41677   11.67196
      H1     5.40619   -5.80408   11.74458
       H     0.26533   -9.27339   10.53260
       O     0.32613   -8.85263    9.60389
      H1    -0.32622   -8.17022    9.78406
       H     3.77959   -9.57587   11.38959
       O     3.12036   -9.98614   11.87966
      H1     3.37531  -10.90439   11.59321
       H     0.31858   -9.57004    5.94936
       O     1.18788   -9.82032    5.49951
      H1     1.74293  -10.13130    6.22686
       H     3.64413  -11.18210    6.85499
       O     2.85810  -10.86924    7.35163
      H1     3.08224  -10.04955    7.79537
       H     4.01440   -9.22533    4.44510
       O     4.74803   -9.01800    5.00028
      H1     5.30407   -9.78221    5.14924
       H     0.46125   -5.87610    7.48450
       O     1.10658   -5.12410    7.64902
      H1     1.34549   -5.20913    8.59543

