75
frame 8 | Written by MDAnalysis XYZWriter (release 2.4.3)
       H   -13.77650  -11.90052    8.85963
       O   -14.22999  -12.53590    8.28598
      H1   -14.70768  -12.01203    7.62517
       H   -12.85373   -7.80574    8.73918
       O   -13.62364   -8.38686    8.81746
      H1   -14.28362   -7.85888    9.21865
       H    -8.47831  -11.23120    6.00983
       O    -8.74338  -11.39602    5.10035
      H1    -9.52753  -11.96796    5.07122
       H    -9.71805   -8.84994    1.31554
       O   -10.45790   -8.65929    1.93769
      H1   -10.92941   -9.51714    1.97104
       H   -11.33984   -5.66616    3.31958
       O   -11.93573   -5.43406    4.02471
      H1   -11.46912   -5.64177    4.83492
       H   -17.82296  -10.51682    8.08311
       O   -17.51796   -9.78705    7.57506
      H1   -17.31224   -9.10187    8.20349
       H   -10.58177  -13.93570    4.41694
       O   -10.61197  -13.16506    3.80953
      H1    -9.86137  -13.38473    3.23808
       H   -10.64421  -14.15234    7.44032
       O   -10.40540  -14.66050    8.20686
      H1   -11.24427  -14.87953    8.64311
       H   -15.76891  -13.22550    8.57267
       O   -16.64696  -13.61020    8.62196
      H1   -16.68567  -14.06491    9.48777
       H   -18.16871  -13.48005    5.99743
       O   -17.94280  -12.58924    5.67051
      H1   -17.13018  -12.31611    6.00830
       H   -12.30403  -10.92640    3.54963
       O   -11.96996  -11.11665    2.67674
      H1   -11.37425  -11.89550    2.85565
       H   -12.46368  -11.10845    5.64223
       O   -13.00539  -10.46460    5.16007
      H1   -12.37761   -9.71370    5.01060
       H   -10.11168   -9.74465    5.12078
       O   -10.41340   -8.82543    4.89947
      H1   -10.25025   -8.66357    3.94973
       H   -14.13382  -11.06656   10.75560
       O   -13.29694  -10.88023   10.30259
      H1   -13.41906   -9.99178    9.94159
       H   -12.91391   -6.82039    4.31937
       O   -13.36217   -7.47726    4.91483
      H1   -13.95095   -8.01488    4.28816
       H   -14.82554  -10.04137    1.82972
       O   -14.44682  -10.90303    1.54441
      H1   -13.57930  -10.89891    1.97992
       H   -10.76616   -6.58857    6.64151
       O   -11.70798   -6.31592    6.74715
      H1   -12.24639   -7.00662    6.45198
       H   -15.30649  -12.00687    2.79869
       O   -15.54622  -12.72571    3.41247
      H1   -16.00913  -12.20302    4.11073
       H   -15.01143   -8.07257    1.16150
       O   -15.65131   -8.45255    1.75434
      H1   -16.24540   -7.72338    1.85878
       H   -12.22852  -12.64380    7.22024
       O   -11.68158  -12.60908    6.42971
      H1   -12.05439  -13.18598    5.79101
       H   -15.99036  -10.40728    6.59745
       O   -15.48273  -11.15436    6.30497
      H1   -14.73284  -10.73439    5.82843
       H   -14.00958  -13.47386    4.15738
       O   -13.46392  -14.01252    4.74760
      H1   -14.13504  -14.50623    5.22099
       H    -8.60805   -7.40269    7.28104
       O    -9.05600   -7.11935    6.41309
      H1    -9.44986   -7.84942    5.92452
       H   -14.47954   -5.72486    6.94469
       O   -14.69004   -4.92449    6.52528
      H1   -15.14584   -4.38205    7.19119
       H   -12.89238   -7.70539   -0.07797
       O   -12.82506   -7.56536    0.86379
      H1   -11.90396   -7.82316    1.07835

