75
frame 9 | Written by MDAnalysis XYZWriter (release 2.4.3)
       H   -16.39740   -5.43884   -2.53853
       O   -16.45997   -4.56254   -3.00153
      H1   -17.20453   -4.63533   -3.72230
       H   -16.49449   -7.76139   -1.91799
       O   -16.42963   -6.88221   -1.50615
      H1   -15.55259   -6.66111   -1.24863
       H   -16.27340   -5.75625   -7.73919
       O   -16.71570   -6.14092   -7.03384
      H1   -17.25711   -5.53844   -6.48724
       H   -16.05058  -10.47461   -0.79062
       O   -16.52429   -9.88236   -0.17879
      H1   -15.96174  -10.05787    0.62283
       H   -14.27630   -3.44650   -4.78205
       O   -15.06322   -3.84680   -5.19567
      H1   -15.44304   -4.19545   -4.38125
       H   -18.27160   -6.70884   -1.29326
       O   -19.21425   -6.42450   -1.46057
      H1   -19.49724   -6.29406   -0.52005
       H   -18.00836   -9.58094   -1.16546
       O   -18.53245   -9.60311   -1.96919
      H1   -19.43260   -9.70675   -1.71170
       H   -19.01420   -5.35311   -4.85729
       O   -18.23785   -4.80978   -5.05744
      H1   -18.54690   -3.93984   -5.30446
       H   -13.62453   -6.36534   -7.32753
       O   -13.44744   -6.13915   -6.39648
      H1   -14.08259   -5.39848   -6.27686
       H   -19.44814   -2.51659   -7.09421
       O   -18.85557   -2.30432   -6.31172
      H1   -17.92773   -2.23729   -6.70332
       H   -13.96898   -9.08871   -3.11640
       O   -13.34684   -8.32394   -3.11185
      H1   -13.07522   -8.17315   -4.06952
       H   -15.80801   -9.54889   -4.12655
       O   -15.12695  -10.14156   -3.80672
      H1   -15.60728  -10.93819   -3.67161
       H   -18.43736   -7.90738   -9.64105
       O   -18.58690   -7.77481   -8.67520
      H1   -18.05673   -7.04889   -8.31981
       H   -19.08660   -9.10846    2.27028
       O   -19.44401   -8.33529    1.82681
      H1   -20.31902   -8.59590    1.37727
       H   -18.74303  -12.07342   -8.09623
       O   -18.80409  -13.00229   -8.23346
      H1   -19.66789  -13.30938   -7.84831
       H   -17.91725  -12.40653   -3.22190
       O   -17.38755  -11.58933   -3.29440
      H1   -17.74603  -10.94520   -2.62905
       H   -16.18875  -13.34318   -6.03713
       O   -15.81225  -12.60471   -5.60395
      H1   -16.53221  -12.18431   -5.13551
       H   -19.14354   -2.65490   -0.79023
       O   -19.07398   -3.03441    0.13580
      H1   -19.45240   -2.34729    0.67134
       H   -18.54704   -3.17849   -2.81238
       O   -19.18858   -2.50880   -2.64858
      H1   -18.64392   -1.70213   -2.61750
       H   -19.15376   -9.04681   -3.52368
       O   -19.41163   -8.67748   -4.40903
      H1   -19.80092   -7.75394   -4.28591
       H   -17.86074   -9.24374   -7.99654
       O   -17.73070  -10.19672   -7.80860
      H1   -16.77377  -10.31729   -7.90922
       H   -17.69483   -8.41984   -4.89297
       O   -16.71689   -8.32740   -4.96845
      H1   -16.57518   -7.59270   -5.64448
       H   -17.81554   -7.00009    1.46127
       O   -17.07388   -6.35313    1.32329
      H1   -16.71486   -6.69087    0.47396
       H   -15.09757  -11.22293   -6.70863
       O   -14.66870  -10.63896   -7.32413
      H1   -14.57894   -9.78793   -6.87990
       H   -15.98483   -3.30338   -1.72208
       O   -15.62914   -3.00571   -0.87131
      H1   -16.36931   -2.83109   -0.32032

