75
frame 9 | Written by MDAnalysis XYZWriter (release 2.4.3)
       H    -4.38341  -16.45297  -11.07772
       O    -5.25535  -16.22249  -11.34124
      H1    -5.73326  -15.68958  -10.67071
       H    -4.46426  -14.04627  -14.04575
       O    -4.93484  -13.72976  -13.22915
      H1    -4.73024  -14.38927  -12.58560
       H    -7.96866  -10.28413  -10.61058
       O    -7.56269  -10.52653  -11.43940
      H1    -6.65724  -10.19979  -11.45996
       H    -2.12343  -10.50751  -13.15301
       O    -1.67081   -9.65796  -13.25807
      H1    -1.62152   -9.48851  -14.22809
       H    -4.95400  -17.69068  -14.45862
       O    -5.02730  -16.78602  -14.15572
      H1    -4.96402  -16.87044  -13.20404
       H    -2.31784  -11.02740  -17.54523
       O    -1.67769  -11.73447  -17.72898
      H1    -2.09936  -12.18594  -18.47585
       H    -6.28402  -10.84307  -16.62692
       O    -5.63245  -10.95338  -15.90753
      H1    -6.07548  -10.69375  -15.11997
       H    -6.48331  -16.83073  -16.61659
       O    -6.43861  -15.90304  -16.38327
      H1    -5.91907  -15.99261  -15.59453
       H    -1.98993  -17.12277  -11.74017
       O    -2.69001  -17.55266  -11.17445
      H1    -2.39426  -17.54772  -10.22523
       H    -4.81203   -8.95831  -11.65384
       O    -4.90770   -9.74944  -11.10394
      H1    -5.10724   -9.40712  -10.18168
       H    -6.62908  -13.02779  -12.85888
       O    -7.40450  -13.00644  -12.33470
      H1    -7.40366  -12.25008  -11.73787
       H    -4.56782  -13.07469  -16.71022
       O    -4.12869  -13.34522  -15.87710
      H1    -3.74361  -12.54734  -15.59305
       H    -1.47604  -14.29613  -10.19868
       O    -1.09651  -13.90885  -11.02536
      H1    -0.70101  -13.06681  -10.74556
       H     0.17432  -16.66758  -13.22189
       O    -0.68121  -16.35881  -12.93655
      H1    -0.49335  -15.63819  -12.32694
       H     0.35539  -11.00034  -10.87224
       O     0.11026  -11.40299  -10.05554
      H1    -0.58563  -10.75262   -9.78032
       H    -4.32731  -10.05452  -16.70864
       O    -3.53545   -9.78316  -17.23894
      H1    -3.70123   -8.83698  -17.54999
       H    -1.93102  -13.71799   -7.37400
       O    -2.40245  -13.76817   -8.26595
      H1    -2.84101  -12.96980   -8.41768
       H    -1.68793  -15.70733  -15.88370
       O    -1.99244  -15.22542  -16.64456
      H1    -2.78612  -14.74563  -16.36492
       H    -3.52164  -12.63352  -12.78634
       O    -2.61467  -12.31296  -12.81442
      H1    -2.22624  -12.73147  -11.99523
       H    -7.51235  -14.16402  -10.57520
       O    -7.28297  -14.84575   -9.99302
      H1    -7.78971  -14.66124   -9.18672
       H     2.25013  -14.21663  -10.60623
       O     1.46861  -14.78380  -10.84687
      H1     0.69758  -14.22701  -10.77547
       H     0.15000  -12.99825  -14.84152
       O     0.01781  -13.16233  -13.89479
      H1    -0.94659  -13.03413  -13.83132
       H    -1.44822   -7.02791  -11.21528
       O    -1.15634   -7.20561  -12.11996
      H1    -1.43925   -8.09156  -12.46092
       H    -2.92023  -10.90362   -9.03658
       O    -3.68828  -11.50051   -9.05244
      H1    -4.20862  -11.06907   -9.83931
       H     0.58813  -11.78574  -12.99432
       O     0.90352  -10.86767  -12.64005
      H1     0.18432  -10.32714  -12.97810

