75
frame 9 | Written by MDAnalysis XYZWriter (release 2.4.3)
       H    -2.72760   -8.42761   -0.43350
       O    -3.25703   -8.99144    0.24013
      H1    -3.04642   -8.50703    1.07551
       H     6.05434   -8.06757    2.72932
       O     5.96867   -7.81096    1.83227
      H1     5.02509   -7.95766    1.79017
       H     1.07137   -8.72225    0.60844
       O     1.33799   -8.41049   -0.28275
      H1     2.30280   -8.39198   -0.27622
       H     3.94395   -7.71477    5.38519
       O     3.47041   -7.04820    5.90538
      H1     3.95843   -6.20889    5.61199
       H    -0.58018   -6.05466    5.54155
       O    -0.30024   -6.73087    6.14266
      H1    -0.92322   -7.45683    6.08059
       H     0.78602  -14.88307    1.61669
       O     1.51726  -14.95894    2.29569
      H1     2.35351  -15.15717    1.78462
       H     2.68909   -6.53603    3.14216
       O     1.99235   -7.25813    3.12697
      H1     2.21650   -7.73395    3.96273
       H     0.17907   -4.82872    1.21935
       O     0.16377   -4.21382    0.49282
      H1     1.01454   -4.02609    0.09560
       H     4.56141  -11.06167    1.88666
       O     5.41735  -10.71883    1.51241
      H1     5.23643   -9.82652    1.23804
       H     2.60975  -11.80163    3.58136
       O     2.99086  -11.06865    3.01817
      H1     2.23670  -10.64543    2.63554
       H    -4.44546  -10.70871    4.13934
       O    -4.18045   -9.92350    3.55936
      H1    -3.29907  -10.15609    3.25331
       H    -0.93126  -13.27106    4.90686
       O    -0.37650  -12.63126    5.34142
      H1     0.55213  -12.72278    5.07969
       H    -1.61674   -6.59534   -1.37577
       O    -1.50577   -7.57128   -1.41518
      H1    -0.76409   -7.72781   -0.91492
       H    -2.25487   -8.97776    5.19120
       O    -2.05953   -8.89952    6.14905
      H1    -1.81593   -9.85804    6.41173
       H     0.34548   -9.61338   -2.71060
       O     0.47196  -10.26651   -1.98194
      H1     0.94781   -9.81887   -1.30194
       H    -2.55368  -10.31956    1.45943
       O    -1.97257  -10.96006    1.85007
      H1    -2.57075  -11.58977    2.28085
       H     0.54480   -8.52186    5.55628
       O     0.85379   -9.21401    4.97464
      H1     1.30112   -9.80140    5.58598
       H    -1.05670  -12.30266    1.13408
       O    -0.74374  -13.08452    0.59710
      H1    -0.44340  -12.62195   -0.20435
       H     4.47781   -9.66038    3.68940
       O     4.90116   -9.01589    4.26467
      H1     5.69484   -9.46707    4.52424
       H    -1.53382   -7.22444    2.95430
       O    -2.11074   -7.97779    3.20988
      H1    -2.96337   -7.51092    3.25139
       H     4.71737   -8.86922   -0.98811
       O     4.08306   -8.43499   -0.38233
      H1     4.06813   -7.49746   -0.64833
       H     0.66276   -9.19773    2.92813
       O     0.72776   -9.79372    2.17524
      H1    -0.14407  -10.23213    2.20770
       H     2.98681  -12.61324    5.57417
       O     2.35296  -12.76632    4.90286
      H1     2.52750  -13.65682    4.52671
       H    -0.73622   -5.49259    3.19585
       O    -0.28241   -6.02332    2.47316
      H1     0.55561   -6.33680    2.83945
       H    -2.60777  -10.93677   -0.68347
       O    -2.10173  -11.25223   -1.42951
      H1    -1.28880  -10.73598   -1.32831

