75
frame 9 | Written by MDAnalysis XYZWriter (release 2.4.3)
       H     6.05434   -8.06757    2.72932
       O     5.96867   -7.81096    1.83227
      H1     5.02509   -7.95766    1.79017
       H     5.72964   -8.10192    9.25261
       O     5.61638   -7.96478   10.24605
      H1     6.04781   -8.72658   10.60851
       H     8.50126   -9.09086    7.38681
       O     8.12580   -8.75324    6.50405
      H1     8.68436   -7.99788    6.23534
       H     3.94395   -7.71477    5.38519
       O     3.47041   -7.04820    5.90538
      H1     3.95843   -6.20889    5.61199
       H     5.18919   -7.22585    6.94370
       O     5.96092   -7.36708    7.45159
      H1     6.58704   -7.83893    6.91912
       H    -0.58018   -6.05466    5.54155
       O    -0.30024   -6.73087    6.14266
      H1    -0.92322   -7.45683    6.08059
       H     2.68909   -6.53603    3.14216
       O     1.99235   -7.25813    3.12697
      H1     2.21650   -7.73395    3.96273
       H     3.97176   -3.87900    8.83615
       O     4.58537   -3.49241    9.49661
      H1     5.27518   -4.16746    9.68035
       H     2.69168   -2.97736    7.39292
       O     2.82129   -3.93690    7.52981
      H1     1.89703   -4.21056    7.43825
       H     2.60975  -11.80163    3.58136
       O     2.99086  -11.06865    3.01817
      H1     2.23670  -10.64543    2.63554
       H     5.51249   -3.78357    5.08424
       O     5.39884   -4.68850    4.86733
      H1     4.57122   -4.61025    4.32364
       H     3.90072   -4.39860    2.32603
       O     3.43812   -4.96805    2.94469
      H1     2.52344   -4.61136    2.82731
       H     7.15073   -6.07437    7.32709
       O     7.87058   -5.53788    7.61728
      H1     8.55873   -5.60155    6.93277
       H     6.41233   -6.33261   10.20528
       O     6.68459   -5.40081   10.13320
      H1     7.23932   -5.34474    9.36479
       H     5.66125  -11.42560    6.43246
       O     4.90543  -11.30909    7.03839
      H1     5.19627  -11.52115    7.90951
       H     6.96645   -5.72527    4.48124
       O     7.82147   -6.20748    4.62953
      H1     8.23269   -6.35500    3.76349
       H     2.01483   -7.71953    7.96226
       O     2.29709   -8.05960    8.80480
      H1     1.56193   -8.25591    9.37511
       H     0.54480   -8.52186    5.55628
       O     0.85379   -9.21401    4.97464
      H1     1.30112   -9.80140    5.58598
       H     3.26722  -10.70059    7.35305
       O     2.38080  -10.65075    7.71965
      H1     2.23740   -9.80124    8.22627
       H    -0.01462   -3.97485    4.23717
       O    -0.96249   -4.27993    4.37977
      H1    -1.39863   -3.75707    5.04170
       H     4.47781   -9.66038    3.68940
       O     4.90116   -9.01589    4.26467
      H1     5.69484   -9.46707    4.52424
       H     0.66276   -9.19773    2.92813
       O     0.72776   -9.79372    2.17524
      H1    -0.14407  -10.23213    2.20770
       H     0.21761   -5.63714    7.60236
       O     0.42511   -4.86845    8.09789
      H1     0.75469   -5.06773    8.94763
       H     6.04976   -2.85871    8.48512
       O     6.93449   -2.94487    8.04154
      H1     7.07922   -3.89367    7.87000
       H    -0.73622   -5.49259    3.19585
       O    -0.28241   -6.02332    2.47316
      H1     0.55561   -6.33680    2.83945

