75
frame 10 | Written by MDAnalysis XYZWriter (release 2.4.3)
       H     2.87633   15.92508  -11.70056
       O     2.20539   15.40901  -11.17892
      H1     1.50344   16.07523  -10.98469
       H     3.32927   14.80008   -5.25236
       O     4.14767   15.20777   -4.92386
      H1     4.60290   15.56618   -5.69265
       H     2.49222   18.29691   -3.10958
       O     2.40409   18.30934   -2.09232
      H1     1.81465   19.02036   -1.86079
       H     5.42597   16.23432  -11.13703
       O     4.67601   16.55888  -11.70778
      H1     5.03665   17.19374  -12.31197
       H    -1.80526   18.45192   -3.92706
       O    -0.86323   18.30681   -3.88120
      H1    -0.61579   18.17691   -4.78939
       H    -1.79936   18.42509   -9.31674
       O    -1.72461   18.05073   -8.43978
      H1    -2.57281   17.60207   -8.36879
       H    -2.02216   15.41419   -3.55814
       O    -1.90492   15.91988   -2.76351
      H1    -1.39122   16.70707   -2.98319
       H     6.27449   19.63081   -4.62165
       O     6.07825   18.71988   -4.29821
      H1     5.88146   18.86626   -3.34161
       H     0.67448   14.35217   -6.05636
       O     0.24822   14.84033   -6.77066
      H1     0.40414   14.40015   -7.58017
       H     1.63229   17.91203   -9.91313
       O     1.13922   17.84686  -10.74462
      H1     0.29808   18.22523  -10.57506
       H     2.64904   18.07639  -13.76964
       O     1.66967   18.27637  -13.48944
      H1     1.73078   17.99125  -12.52613
       H     4.35090   16.55772   -7.77938
       O     5.06772   16.07131   -7.44109
      H1     5.67957   16.82952   -7.10133
       H     6.48254   19.65010   -9.70614
       O     7.38067   19.50308   -9.33287
      H1     7.92521   19.11309  -10.06224
       H     6.31017   14.48085   -7.02941
       O     6.48283   13.87081   -6.25154
      H1     5.66630   13.84164   -5.79370
       H     3.26564   17.27227   -4.96644
       O     3.30567   18.14049   -4.60644
      H1     4.17937   18.55670   -4.61758
       H    -1.71542   18.07557  -11.74481
       O    -1.48682   18.74812  -11.08479
      H1    -1.86485   19.55738  -11.44972
       H     0.65055   13.23402   -9.73701
       O     1.30117   13.56556   -9.08890
      H1     1.98156   13.87339   -9.76508
       H     2.00516   17.84357   -7.50763
       O     2.65749   17.86466   -8.22322
      H1     3.12443   18.60797   -7.94335
       H     3.25492   15.17534   -1.80544
       O     4.14283   14.84237   -2.09567
      H1     4.08863   14.87449   -3.05066
       H     7.05964   18.70026   -7.62942
       O     7.05270   18.22242   -6.80278
      H1     6.79218   18.75447   -6.02893
       H     1.30946   13.63248   -3.85563
       O     1.71812   13.65079   -4.71126
      H1     2.32950   12.89204   -4.70775
       H    -2.52908   14.70822   -5.73267
       O    -2.33580   15.36105   -6.44910
      H1    -1.42241   15.13805   -6.65786
       H    -2.21260   15.29241  -12.49973
       O    -2.57961   15.84753  -11.76794
      H1    -2.00013   15.68089  -11.02478
       H    -0.79560   14.92261   -9.11648
       O    -0.85844   15.67126   -9.71143
      H1    -0.92809   16.42738   -9.13138
       H     0.47668   16.43419   -6.39882
       O     0.51115   17.43568   -6.44036
      H1    -0.08349   17.69785   -7.15259

