75
frame 10 | Written by MDAnalysis XYZWriter (release 2.4.3)
       H    -0.74874  -13.57671   -6.77058
       O    -1.53104  -14.10584   -6.87956
      H1    -2.09024  -14.05781   -6.09482
       H    -8.98626  -16.13202   -7.90165
       O    -8.29397  -15.45910   -7.99489
      H1    -8.55143  -15.01975   -7.23738
       H    -2.64512  -15.24564   -4.87721
       O    -2.58634  -14.32610   -4.50589
      H1    -3.48426  -13.96939   -4.66195
       H    -7.15263  -18.68081   -5.10116
       O    -6.64885  -17.85624   -5.19477
      H1    -6.80301  -17.70154   -6.13756
       H    -1.33805  -13.29529   -3.17168
       O    -0.59304  -12.73656   -2.84341
      H1    -1.10150  -11.93729   -2.61577
       H    -6.22440  -17.06612   -7.86919
       O    -6.60800  -17.93781   -7.94475
      H1    -7.55072  -17.84292   -8.11643
       H    -4.51620  -12.31965   -4.60992
       O    -5.18126  -13.00945   -4.44060
      H1    -5.66915  -13.22435   -5.26044
       H    -7.14118   -8.38601   -8.03201
       O    -7.26252   -8.97293   -7.31081
      H1    -6.47201   -8.83459   -6.77316
       H   -10.13796  -10.39773   -6.88833
       O    -9.80091  -11.29549   -6.65003
      H1   -10.55562  -11.86539   -6.51545
       H    -8.73993  -15.26368   -4.97043
       O    -8.54135  -14.37724   -5.47958
      H1    -9.22433  -13.84477   -5.05894
       H    -4.00955  -15.31758   -8.28036
       O    -4.48496  -15.68573   -7.51023
      H1    -5.06084  -14.99531   -7.30627
       H    -2.70422  -14.97647   -1.04623
       O    -3.24508  -14.89022   -1.83476
      H1    -2.69756  -14.93469   -2.65637
       H    -6.06464  -17.48253   -3.62469
       O    -5.87715  -17.36187   -2.72299
      H1    -5.65581  -16.41495   -2.67210
       H    -6.38799   -8.19551   -4.79357
       O    -5.88564   -8.98979   -4.94715
      H1    -6.42729   -9.71747   -4.75560
       H    -8.65888  -11.17710   -5.18237
       O    -8.21702  -10.69908   -4.51892
      H1    -8.04960  -11.27271   -3.77296
       H    -3.42708  -16.42380   -6.27618
       O    -2.84841  -16.62850   -5.49437
      H1    -2.03813  -17.01016   -5.81923
       H    -2.35083  -14.28168   -8.51115
       O    -2.76158  -14.43313   -9.35181
      H1    -3.28221  -13.56363   -9.53457
       H    -5.82654  -13.81348   -3.19921
       O    -5.86231  -14.47029   -2.48881
      H1    -4.89970  -14.53076   -2.17301
       H    -8.70523  -12.41072   -2.08951
       O    -7.74817  -12.20699   -2.32193
      H1    -7.42025  -13.06785   -2.68326
       H    -4.36841  -11.63095   -0.08499
       O    -3.60268  -12.20959   -0.10806
      H1    -3.81488  -12.84049   -0.80818
       H    -7.29434  -13.65227   -6.38377
       O    -6.36344  -13.44185   -6.69055
      H1    -6.46426  -12.80045   -7.34359
       H    -6.81662  -10.78649   -8.11164
       O    -6.53708  -11.54168   -8.64125
      H1    -7.34586  -11.93638   -9.03602
       H    -3.53779  -11.25672  -10.47681
       O    -3.90266  -11.74363   -9.74441
      H1    -4.77170  -11.36426   -9.46176
       H    -2.56244   -9.67631   -5.46016
       O    -1.97140   -9.03818   -5.86032
      H1    -2.45146   -8.22391   -5.99747
       H    -4.30291  -10.15872   -4.57367
       O    -3.52633  -10.70307   -4.47808
      H1    -3.11554  -10.37080   -3.63930

