75
frame 10 | Written by MDAnalysis XYZWriter (release 2.4.3)
       H    -5.04630    3.40612   -3.77056
       O    -5.60236    2.65252   -3.65798
      H1    -5.78379    2.46342   -4.59715
       H    -0.66236   -1.95800   -3.39084
       O    -0.69356   -1.97694   -2.41810
      H1    -0.01059   -1.47058   -1.94379
       H    -4.14102   -0.59465   -6.08739
       O    -3.82826    0.25076   -6.31653
      H1    -3.02203    0.38570   -5.78997
       H     0.69174    4.86436   -8.03803
       O     1.49812    4.92167   -8.54885
      H1     1.29458    4.76503   -9.45799
       H     1.72477    1.44648   -4.53104
       O     1.57378    2.41793   -4.58004
      H1     0.74888    2.54126   -5.02815
       H     1.33415   -2.67194   -5.83078
       O     0.91151   -1.78744   -5.76936
      H1     1.01380   -1.37730   -6.62546
       H    -5.18622    6.20399   -4.37604
       O    -5.22564    5.49317   -3.71035
      H1    -5.83615    5.81137   -2.99177
       H    -5.70063    2.61785   -7.27290
       O    -5.54227    2.20867   -6.39544
      H1    -4.90940    1.50119   -6.42333
       H     3.02010   -0.42648   -3.36068
       O     2.43056   -0.04042   -4.03355
      H1     1.88384   -0.79426   -4.41276
       H    -1.00306    1.81996   -7.96861
       O    -0.73995    1.62627   -8.88952
      H1    -1.42258    0.98905   -9.22162
       H     1.60915    4.52781   -1.81543
       O     1.32722    3.60190   -2.01246
      H1     1.38053    3.59597   -3.00884
       H    -0.80854   -2.72186   -5.75099
       O    -1.57056   -2.86910   -5.19244
      H1    -2.33261   -2.59902   -5.67454
       H    -1.94517    1.38720   -3.26377
       O    -2.46338    1.66594   -4.02768
      H1    -3.38255    1.54595   -3.92600
       H    -2.83443    1.19522   -1.42903
       O    -1.88170    1.39702   -1.36654
      H1    -1.89527    2.35186   -1.52996
       H    -4.61531    5.87523   -6.36535
       O    -3.96997    6.48531   -5.95922
      H1    -3.49525    5.94156   -5.33377
       H     0.96148    1.23713   -9.58155
       O     1.62307    0.77111  -10.08320
      H1     2.37540    1.37435  -10.29133
       H    -2.94341    4.84531   -9.76100
       O    -3.27833    4.83297   -8.86948
      H1    -3.79848    5.57601   -8.72971
       H    -1.83943    4.86242   -1.16639
       O    -1.62927    4.10487   -1.76962
      H1    -0.65041    4.19247   -2.00431
       H     5.00816    3.49840   -5.32021
       O     4.15388    3.30700   -5.80441
      H1     3.47134    3.08861   -5.12540
       H    -1.90522    2.27081  -10.42712
       O    -2.40448    1.77158  -11.09904
      H1    -3.33476    1.99012  -11.12660
       H    -2.81755    0.16295   -8.18631
       O    -2.76300   -0.46752   -8.86860
      H1    -3.59707   -0.90169   -8.97407
       H    -1.14685    6.00888   -6.65457
       O    -0.96590    5.19002   -7.13591
      H1    -1.74110    5.16825   -7.70038
       H    -1.96332    4.96072   -3.40147
       O    -2.18609    5.47733   -4.20368
      H1    -1.65024    6.24740   -4.13264
       H    -4.99159    1.54409   -2.22308
       O    -4.64248    1.20955   -1.43606
      H1    -4.73947    1.91904   -0.75713
       H    -1.38792    2.39981   -5.30625
       O    -1.10521    2.56536   -6.25201
      H1    -1.28650    3.46356   -6.39969

