75
frame 10 | Written by MDAnalysis XYZWriter (release 2.4.3)
       H    -3.86023   -3.02480  -11.79592
       O    -3.16625   -3.49748  -11.31500
      H1    -2.34701   -3.04433  -11.61429
       H    -4.78925   -3.00595   -5.50964
       O    -4.26360   -2.49886   -6.10123
      H1    -4.45345   -2.98122   -6.92599
       H    -5.97199   -1.04420  -13.86160
       O    -6.58876   -0.43358  -14.31252
      H1    -6.98525    0.05965  -13.57899
       H    -2.41617   -3.51995  -16.63420
       O    -1.85441   -4.11992  -16.22120
      H1    -1.54290   -3.81007  -15.34383
       H    -0.47894   -3.48050   -8.64754
       O    -0.53423   -2.62324   -9.01360
      H1    -1.27994   -2.18991   -8.58367
       H    -0.75687   -5.72409   -9.57203
       O    -1.35180   -6.47871   -9.87014
      H1    -2.25339   -6.10490   -9.99582
       H     1.43034   -4.97542   -8.80064
       O     0.55842   -4.99462   -8.31705
      H1     0.84211   -5.05005   -7.42838
       H    -2.30174   -0.95896  -15.13668
       O    -2.97789   -1.68183  -15.04870
      H1    -3.78846   -1.16389  -15.10288
       H    -5.86653   -0.00945  -10.39619
       O    -6.25489   -0.77168   -9.96461
      H1    -7.13501   -0.60933   -9.56344
       H    -1.00306    1.81996   -7.96861
       O    -0.73995    1.62627   -8.88952
      H1    -1.42258    0.98905   -9.22162
       H    -6.19931   -3.08267  -12.24841
       O    -5.51054   -2.35551  -12.33570
      H1    -5.80965   -1.73102  -11.62762
       H    -5.53427   -4.44505   -8.47682
       O    -5.94142   -5.12744   -7.96453
      H1    -5.39157   -5.30193   -7.17443
       H    -1.74555    1.56011  -12.66714
       O    -1.18246    1.38113  -13.41743
      H1    -0.55322    0.66817  -13.04333
       H     1.11741    0.43325  -11.82841
       O     0.82094   -0.10885  -12.61013
      H1     0.53329   -0.99935  -12.28056
       H    -2.81755    0.16295   -8.18631
       O    -2.76300   -0.46752   -8.86860
      H1    -3.59707   -0.90169   -8.97407
       H    -3.65393   -5.05523  -10.93362
       O    -3.92285   -5.93559  -10.56169
      H1    -3.71731   -6.49420  -11.35525
       H    -2.80447   -8.37550  -13.24193
       O    -3.56062   -8.24735  -12.62486
      H1    -4.21515   -7.81765  -13.23812
       H    -0.65843   -2.35916  -11.05169
       O    -0.87401   -2.32616  -11.98230
      H1    -0.44692   -3.12854  -12.28364
       H    -8.65531   -3.71650  -12.86222
       O    -7.87434   -4.03539  -12.34165
      H1    -7.96648   -4.98587  -12.40292
       H    -5.25947   -2.12231   -9.13912
       O    -4.61351   -2.81426   -8.91855
      H1    -4.23568   -3.12425   -9.68908
       H    -4.88413   -3.83585  -13.96069
       O    -4.63926   -4.30452  -14.73423
      H1    -3.73906   -3.94615  -14.95736
       H    -4.99159   -5.94546  -14.40499
       O    -5.42139   -6.83114  -14.13374
      H1    -6.05497   -7.00702  -14.87528
       H    -4.73017   -7.30348   -9.26377
       O    -4.85856   -8.20384   -8.94649
      H1    -3.94966   -8.53617   -8.90804
       H    -0.51218   -6.84609  -11.46501
       O    -0.12099   -6.98645  -12.31947
      H1    -0.51031   -7.83502  -12.64561
       H     0.15265   -5.33489  -13.22709
       O     0.33235   -4.40369  -13.53825
      H1     0.76871   -4.66860  -14.35605

