75
frame 11 | Written by MDAnalysis XYZWriter (release 2.4.3)
       H   -15.31494   14.43437    3.89038
       O   -15.43864   14.69592    4.83637
      H1   -15.92728   15.54514    4.73896
       H   -12.87692   17.81634    0.19374
       O   -13.22989   18.50199    0.76761
      H1   -12.64572   19.26444    0.50670
       H   -12.73838   15.18631    0.18308
       O   -12.73283   15.95249   -0.40319
      H1   -13.18615   15.57807   -1.17763
       H    -8.00549   19.37537    2.26896
       O    -8.14569   18.60887    1.69813
      H1    -9.06796   18.40148    1.69318
       H   -18.98552   19.05013    5.41270
       O   -18.58653   19.85571    5.73352
      H1   -18.34397   19.65157    6.60717
       H   -11.69406   19.44403   -4.73789
       O   -11.42153   18.78694   -5.33667
      H1   -11.78271   19.06600   -6.16219
       H   -13.41929   15.76301   -3.47533
       O   -14.08393   15.45823   -2.81819
      H1   -14.91638   15.92805   -2.94969
       H   -14.86638   17.78113    2.38451
       O   -15.35414   18.42647    2.96375
      H1   -16.25769   18.24450    2.75409
       H   -19.43456   18.92725    0.08587
       O   -18.96979   19.45429    0.75193
      H1   -19.69526   19.79600    1.28065
       H   -11.82075   18.10574    1.98819
       O   -10.90799   18.36330    2.30337
      H1   -10.60148   17.74233    2.93778
       H   -11.40874   15.68869   -4.37315
       O   -12.21774   16.22210   -4.53334
      H1   -11.87156   17.13773   -4.57871
       H   -16.07824   17.73398   -2.07738
       O   -16.49438   16.87046   -2.31269
      H1   -16.90039   16.91810   -3.17389
       H   -18.26422   18.30198    2.27981
       O   -18.11801   17.56976    2.91771
      H1   -18.75244   16.88519    2.69053
       H   -19.10943   14.39285   -0.08277
       O   -18.81195   13.74116    0.55470
      H1   -19.09121   14.06796    1.39795
       H   -15.69555   19.80476   -0.82194
       O   -15.14399   19.13896   -1.28540
      H1   -14.58007   18.95576   -0.50427
       H   -14.38418   13.75840   -2.27378
       O   -13.98521   12.97457   -1.86419
      H1   -14.65376   12.29903   -1.68692
       H   -16.23203   17.68200    5.53512
       O   -16.95880   17.07956    5.30791
      H1   -17.17180   17.27030    4.35592
       H    -9.77916   14.81011   -1.43335
       O    -9.95759   14.93523   -0.50673
      H1   -10.57870   15.68555   -0.53365
       H   -16.02610   14.74677    1.15660
       O   -15.49955   14.43479    1.87932
      H1   -15.68565   13.48883    1.87051
       H   -18.05206   13.91387   -2.98252
       O   -17.81151   13.08570   -3.34084
      H1   -18.27190   12.99841   -4.16032
       H   -18.68224   16.95731   -4.16587
       O   -17.82638   17.25452   -4.51040
      H1   -17.85196   16.97430   -5.38352
       H   -16.47263   19.65974   -8.96449
       O   -16.57701   19.07366   -8.18637
      H1   -16.44012   19.60745   -7.41150
       H   -15.38966   17.74029   -8.01632
       O   -15.22187   16.77041   -8.01900
      H1   -15.74680   16.34692   -7.28882
       H   -18.18214   16.00541   -1.64480
       O   -18.80866   15.30592   -1.81865
      H1   -19.72469   15.63165   -1.77249
       H   -12.32874   13.40871    1.23477
       O   -11.66274   14.14317    1.44464
      H1   -11.12106   14.26051    0.58530

