75
frame 10 | Written by MDAnalysis XYZWriter (release 2.4.3)
       H   -11.62670   -2.19621   -9.94302
       O   -11.06260   -1.36736   -9.92067
      H1   -10.97185   -1.23566  -10.85036
       H    -8.72829  -10.61937  -11.17018
       O    -8.29767  -10.50896  -12.05581
      H1    -7.41801  -10.15461  -11.73293
       H   -11.61018   -9.93818  -13.34771
       O   -11.95633  -10.36022  -14.14123
      H1   -11.17310  -10.69014  -14.65088
       H   -11.76155   -5.42981  -12.12846
       O   -11.47883   -5.49046  -11.18809
      H1   -11.98467   -4.75847  -10.74959
       H    -7.36733   -6.07869   -9.06706
       O    -7.90820   -6.89429   -9.04642
      H1    -8.26091   -7.05094   -9.95337
       H   -13.19959   -7.81184   -9.81716
       O   -14.05880   -7.33082   -9.83157
      H1   -13.79833   -6.43718  -10.13348
       H    -9.50892   -5.65428   -7.27358
       O    -8.80434   -5.20518   -6.79035
      H1    -8.07240   -5.35091   -7.40306
       H    -5.08054   -9.11506  -11.81404
       O    -5.77480   -9.50432  -11.26585
      H1    -5.54578   -9.10557  -10.39975
       H   -11.75134   -8.88914  -15.38830
       O   -11.32725   -8.35901  -16.07984
      H1   -11.26063   -8.98918  -16.75682
       H    -8.85042   -7.06230  -12.31073
       O    -9.24241   -7.15341  -11.45889
      H1    -9.86898   -6.44915  -11.25905
       H    -6.19931   -3.08267  -12.24841
       O    -5.51054   -2.35551  -12.33570
      H1    -5.80965   -1.73102  -11.62762
       H    -9.93214   -9.86443  -12.09629
       O   -10.74873   -9.41304  -11.80432
      H1   -10.29222   -8.56638  -11.73263
       H    -7.14118   -8.38601   -8.03201
       O    -7.26252   -8.97293   -7.31081
      H1    -6.47201   -8.83459   -6.77316
       H   -10.55864   -3.00836  -13.90077
       O    -9.88706   -3.59913  -14.21352
      H1    -9.99683   -3.62434  -15.13292
       H   -12.02172   -6.34695   -8.20964
       O   -11.21716   -5.77850   -8.39827
      H1   -10.96041   -5.96461   -9.27407
       H   -10.12876   -8.07688   -7.76894
       O    -9.81257   -8.37959   -6.93946
      H1    -8.90777   -8.55948   -7.04312
       H    -7.09932   -6.67390  -16.53744
       O    -7.17304   -7.48486  -16.00063
      H1    -7.99486   -7.32200  -15.53380
       H   -10.15731   -7.20751  -15.31112
       O    -9.44470   -6.78271  -14.77203
      H1    -9.73446   -5.84686  -14.82386
       H   -13.34224   -3.52023   -9.08916
       O   -13.08944   -3.54892  -10.01888
      H1   -13.99926   -3.39263  -10.43120
       H    -9.19471   -3.69386   -6.99612
       O    -9.54727   -2.76969   -6.99246
      H1    -9.11081   -2.22585   -7.63985
       H    -8.65531   -3.71650  -12.86222
       O    -7.87434   -4.03539  -12.34165
      H1    -7.96648   -4.98587  -12.40292
       H   -10.97941   -8.37927   -9.94471
       O   -11.54573   -8.41451   -9.16344
      H1   -11.93113   -9.31700   -9.21501
       H    -4.99159   -5.94546  -14.40499
       O    -5.42139   -6.83114  -14.13374
      H1    -6.05497   -7.00702  -14.87528
       H   -12.15359   -4.28244   -7.80515
       O   -12.52436   -3.52788   -7.38377
      H1   -11.76398   -2.98604   -7.13321
       H   -15.09601   -6.79661  -12.18832
       O   -14.74936   -6.47132  -13.00949
      H1   -14.61232   -7.35296  -13.42665

