75
frame 10 | Written by MDAnalysis XYZWriter (release 2.4.3)
       H   -17.29629   -1.23171  -14.90673
       O   -16.74672   -1.24583  -14.11081
      H1   -16.55605   -2.18591  -14.16540
       H    -6.76673   -4.35386  -16.88021
       O    -7.41837   -4.92359  -16.50701
      H1    -8.08014   -4.37303  -16.09809
       H   -15.30973   -2.20371  -16.35991
       O   -14.69457   -1.48375  -16.14210
      H1   -15.25881   -0.94616  -15.56476
       H   -16.97575   -4.13640  -13.38054
       O   -16.04387   -4.10064  -13.61990
      H1   -15.60569   -4.94294  -13.30265
       H   -11.76155   -5.42981  -12.12846
       O   -11.47883   -5.49046  -11.18809
      H1   -11.98467   -4.75847  -10.74959
       H   -15.70828   -9.75450  -14.47701
       O   -15.01380   -9.07965  -14.57879
      H1   -14.20976   -9.49130  -14.18459
       H    -7.25607   -4.70150  -18.63455
       O    -7.82939   -4.44678  -19.39850
      H1    -7.62090   -5.06443  -20.09350
       H    -8.23234   -9.57153  -18.08125
       O    -9.18401   -9.35789  -17.94802
      H1    -9.14780   -8.80958  -17.18847
       H   -13.13667   -1.42536  -15.11140
       O   -12.34936   -1.40950  -14.55569
      H1   -12.49544   -0.63010  -13.99955
       H   -11.75134   -8.88914  -15.38830
       O   -11.32725   -8.35901  -16.07984
      H1   -11.26063   -8.98918  -16.75682
       H   -15.43533   -0.81559  -18.92206
       O   -14.48939   -1.02000  -18.78340
      H1   -14.41181   -1.02094  -17.75915
       H   -12.17094   -9.79402  -18.94958
       O   -11.89023  -10.23594  -18.11956
      H1   -11.12988  -10.76148  -18.34355
       H   -10.55864   -3.00836  -13.90077
       O    -9.88706   -3.59913  -14.21352
      H1    -9.99683   -3.62434  -15.13292
       H   -13.07680   -4.68109  -16.11431
       O   -12.82221   -4.73933  -17.02601
      H1   -13.38623   -4.12090  -17.41983
       H    -8.26898   -2.67274  -19.26592
       O    -8.79043   -1.84902  -19.28004
      H1    -9.69588   -2.13981  -19.45636
       H   -13.96562   -5.94171  -17.90974
       O   -14.47347   -6.63236  -18.40212
      H1   -14.06218   -7.51980  -18.18882
       H   -10.15731   -7.20751  -15.31112
       O    -9.44470   -6.78271  -14.77203
      H1    -9.73446   -5.84686  -14.82386
       H   -17.15682   -3.98693  -16.99751
       O   -16.58383   -3.48203  -16.37758
      H1   -16.48810   -4.09351  -15.57719
       H   -10.91691   -4.34205  -17.57636
       O   -10.11245   -4.03151  -17.23788
      H1    -9.45344   -4.37458  -17.84390
       H   -10.24771   -1.37977  -17.26343
       O   -10.13192   -0.94427  -16.40147
      H1   -10.95068   -1.22227  -15.93376
       H   -16.31932   -7.30983  -18.35116
       O   -16.95558   -7.84370  -18.86853
      H1   -17.16922   -7.39395  -19.70440
       H    -9.69986   -8.25252  -19.14893
       O    -9.89137   -7.70500  -19.88152
      H1    -9.11372   -7.27634  -20.21310
       H   -13.00254   -3.78827  -19.39188
       O   -13.90717   -3.67449  -19.27904
      H1   -14.08179   -2.73818  -19.21811
       H   -13.41117   -9.45704  -17.14893
       O   -14.27520   -9.08991  -17.20648
      H1   -14.65888   -9.08471  -16.35556
       H   -15.09601   -6.79661  -12.18832
       O   -14.74936   -6.47132  -13.00949
      H1   -14.61232   -7.35296  -13.42665

