75
frame 10 | Written by MDAnalysis XYZWriter (release 2.4.3)
       H    18.78852  -11.57797   13.28293
       O    18.89079  -11.73955   12.36956
      H1    18.75036  -12.71526   12.32879
       H    15.36355  -11.92258   12.60677
       O    15.40353  -12.52378   13.43796
      H1    14.97833  -12.02838   14.12761
       H    18.92232   -3.34898   12.21279
       O    18.82348   -2.37641   12.23113
      H1    19.68086   -2.07187   12.47089
       H    14.98249   -8.27340    9.83538
       O    14.18061   -8.10405    9.29880
      H1    14.38042   -7.23885    8.90640
       H    17.39152  -11.87776   11.52051
       O    16.69732  -11.92685   10.85670
      H1    17.03872  -11.69317   10.00103
       H    13.05955  -10.93623   15.15302
       O    14.00132  -10.73081   15.22678
      H1    14.25288  -10.23281   15.99931
       H    13.79806   -7.89576   16.55507
       O    14.23549   -7.59478   15.73895
      H1    13.55145   -7.65035   15.09658
       H    16.15878  -12.44245   17.02937
       O    17.15696  -12.36255   16.99937
      H1    17.34859  -11.93234   16.15727
       H    19.00466  -10.36814   15.43204
       O    18.19317  -10.69259   14.93618
      H1    17.84074   -9.93026   14.45898
       H    15.54369   -4.32603    9.50002
       O    16.31714   -3.75512    9.33623
      H1    16.97369   -3.99304   10.04987
       H    14.60777  -10.58384   18.76937
       O    15.27466  -10.28941   18.11057
      H1    16.10794  -10.46380   18.50214
       H    18.85013   -3.65488   15.02631
       O    18.00725   -4.08956   14.89718
      H1    17.33281   -3.48346   14.59807
       H    15.52505   -6.83372   11.96686
       O    14.59079   -6.53815   11.88395
      H1    14.52954   -5.80060   12.47413
       H    19.82859   -8.04718   19.94436
       O    19.47357   -7.89933   19.06547
      H1    18.86712   -8.55744   18.80068
       H    13.53169   -9.80584   12.76955
       O    13.74446  -10.20424   11.91872
      H1    13.69055   -9.44461   11.30511
       H    19.29404   -5.57838    9.51315
       O    19.65374   -5.07362    8.77324
      H1    19.63386   -4.15527    8.98575
       H    17.54094   -7.88775   14.05926
       O    16.83959   -8.55264   13.92864
      H1    16.19677   -8.29064   14.60491
       H    15.98948   -6.84234   15.75304
       O    16.86077   -6.41327   15.82767
      H1    16.97052   -5.66898   15.14879
       H    17.82403   -5.52380   11.90158
       O    17.23001   -4.75915   11.72224
      H1    16.56698   -4.63353   12.42372
       H    18.89365   -5.96061   14.03966
       O    19.24009   -6.56688   13.38362
      H1    20.13389   -6.70811   13.69065
       H    19.20852  -10.50781   18.88271
       O    18.27142  -10.61626   18.74533
      H1    18.06146  -11.38136   18.20279
       H    14.46328   -3.90778   14.35942
       O    15.11762   -3.71545   13.63357
      H1    15.50023   -2.84327   13.71682
       H    16.18399   -9.11457   11.30034
       O    16.46612   -8.78180   10.41235
      H1    16.86708   -9.53514   10.05282
       H    19.09674   -7.89690    9.48109
       O    19.04944   -7.44066   10.39302
      H1    18.14656   -7.62099   10.65348
       H    18.20142   -6.23433   18.72952
       O    17.61228   -5.58228   18.33351
      H1    17.28471   -5.98428   17.48532

