78
frame 1 | Written by MDAnalysis XYZWriter (release 2.4.3)
       H    -1.04333    5.42671    0.43744
       O    -1.45442    4.55855    0.20139
      H1    -1.24241    4.15627    1.04858
       H    -3.48143   10.05382    0.10994
       O    -3.39936    9.21067   -0.41433
      H1    -4.30258    8.93363   -0.69495
       H    -3.52436    9.18346   -4.79151
       O    -3.61733    9.86283   -4.15474
      H1    -4.31147    9.48753   -3.65981
       H    -5.79188    5.14144    2.00488
       O    -6.02125    5.08821    1.07729
      H1    -6.96041    4.95981    1.02948
       H    -4.58230    5.40169   -3.59822
       O    -4.92114    5.96023   -2.83914
      H1    -4.47993    5.52879   -2.10436
       H    -3.47299    7.65668    0.64857
       O    -3.79048    6.86288    1.12643
      H1    -3.14577    6.57853    1.77655
       H     1.00439    7.31024    1.54393
       O     1.91389    7.11638    1.81710
      H1     2.21612    7.89491    2.24657
       H    -0.73951    6.13291   -2.70027
       O    -1.00592    5.19128   -2.76233
      H1    -1.09744    4.94225   -1.82655
       H    -7.48548    7.89164    1.88595
       O    -7.03935    7.99067    1.06877
      H1    -6.66334    7.08906    0.80345
       H    -4.58688    2.94154    0.51363
       O    -4.60741    2.30220    1.23470
      H1    -4.88831    1.57136    0.72452
       H    -4.66379    8.76268    2.15264
       O    -4.15788    9.36508    2.74415
      H1    -4.54256   10.26081    2.77480
       H    -2.13116   10.30569   -1.64521
       O    -1.68540   10.58306   -2.42938
      H1    -2.33549   10.33362   -3.13066
       H    -5.20408    8.38791    5.60433
       O    -5.72028    8.59013    4.76318
      H1    -5.00655    8.78961    4.04166
       H    -1.51786    5.67759    3.40976
       O    -2.42827    5.77356    3.20591
      H1    -2.86517    5.31274    4.00577
       H    -5.25982   12.51946    3.54296
       O    -5.32677   11.78064    2.90261
      H1    -6.10974   12.05677    2.43437
       H    -6.62129   10.75126   -1.24571
       O    -7.32928   10.61244   -0.57622
      H1    -7.10754    9.88599   -0.02897
       H    -1.06148    8.29057    3.88603
       O    -1.36807    8.67972    3.07328
      H1    -2.31237    8.65939    3.12957
       H    -1.64373   10.97412    4.96430
       O    -1.18677   11.16894    4.17291
      H1    -1.29753   10.29374    3.65712
       H    -4.32029   12.57798    0.84212
       O    -3.69506   12.12241    0.23732
      H1    -2.86639   12.62524    0.33577
       H    -0.81291    7.78130    1.59890
       O    -0.61294    7.18055    0.88837
      H1    -0.55395    7.65193    0.04671
       H    -5.27293   12.20162   -3.11114
       O    -5.67550   11.88919   -2.30712
      H1    -4.91609   11.86383   -1.70805
       H    -7.49704    5.83460   -2.13985
       O    -8.42623    5.69219   -2.25322
      H1    -8.41175    4.90364   -2.84341
       H    -4.79579    4.69210   -0.02225
       O    -4.06603    4.34179   -0.57286
      H1    -3.24339    4.62924   -0.09724
       H    -6.34638    8.90906   -2.83684
       O    -5.59504    8.72248   -2.25921
      H1    -5.40712    7.80659   -2.52755
       H    -4.50435    6.32887    2.94927
       O    -5.29176    6.15220    3.53160
      H1    -5.36096    6.92454    4.14568
       H     0.42705    8.35102   -1.96306
       O    -0.54114    8.14586   -1.93883
      H1    -1.01713    9.00659   -2.07655

