78
frame 1 | Written by MDAnalysis XYZWriter (release 2.4.3)
       H    13.85960   -6.04001   -4.11736
       O    13.78057   -6.29746   -3.21682
      H1    14.55450   -6.66840   -2.78046
       H    12.96906   -4.69844   -2.31300
       O    12.58262   -3.81616   -2.08983
      H1    11.72646   -3.74913   -2.56790
       H    12.51852   -1.32126   -6.27337
       O    12.35659   -1.94152   -5.60952
      H1    11.69505   -2.54299   -6.07389
       H    18.33153   -4.18845   -1.00059
       O    17.79665   -4.14420   -1.78474
      H1    17.32753   -3.30136   -1.68325
       H    15.79369   -0.65872   -2.63821
       O    16.45872   -1.00233   -2.01119
      H1    16.94814   -0.22043   -1.70412
       H    18.72329   -4.79761   -2.90944
       O    19.35060   -5.01558   -3.63668
      H1    19.83643   -4.19251   -3.79595
       H    15.47852    1.36234    0.40154
       O    15.09397    1.52066   -0.50103
      H1    15.64479    2.21862   -0.90957
       H    14.78350   -3.92783    0.85752
       O    14.72524   -2.92158    0.90977
      H1    15.13346   -2.68761    0.08463
       H    15.19797   -5.38212   -8.57059
       O    14.78203   -4.91234   -7.80264
      H1    14.63996   -4.01769   -8.13770
       H    17.77398   -6.52314   -6.91973
       O    18.11979   -5.69281   -7.29019
      H1    19.00857   -5.63488   -6.89368
       H    19.16397    1.15792   -0.80593
       O    18.43838    1.15718   -1.40809
      H1    18.42789    2.04145   -1.82446
       H    17.20631   -1.29225   -8.13280
       O    16.79832   -0.71809   -8.77119
      H1    16.13881   -1.26096   -9.27357
       H    16.76969   -2.93119   -4.42910
       O    17.52132   -2.42544   -4.22925
      H1    17.11965   -1.70249   -3.70241
       H    17.22605    3.44983   -3.18901
       O    18.12264    3.50327   -2.82459
      H1    18.74512    2.88572   -3.16721
       H    17.91213   -1.13473    1.56826
       O    17.60709   -1.78962    2.22453
      H1    18.36556   -2.33108    2.47917
       H    14.05725   -2.96309   -3.11057
       O    14.60834   -2.97198   -3.91208
      H1    13.95310   -3.01749   -4.61298
       H    19.25581   -8.78578   -3.47070
       O    18.77429   -8.16027   -4.00105
      H1    19.52309   -7.49266   -4.14808
       H    19.00349   -1.92980   -2.83994
       O    19.61819   -1.34506   -2.41926
      H1    19.13301   -0.60391   -2.14218
       H    17.36411    0.88667   -6.16436
       O    18.16337    1.39733   -5.99886
      H1    18.90000    0.86182   -5.69265
       H    14.07961    0.52302   -4.04521
       O    14.77861   -0.15162   -4.10815
      H1    14.42766   -1.07274   -4.12065
       H    13.60079    2.61873   -7.32733
       O    14.53206    2.82610   -7.23640
      H1    14.91069    1.92151   -7.02017
       H    16.18135   -0.17678   -7.19692
       O    15.66842    0.30463   -6.58189
      H1    15.43148   -0.18148   -5.78009
       H    17.00307   -7.79792   -2.40190
       O    16.11892   -7.81141   -2.00428
      H1    16.40407   -7.86387   -1.06298
       H    13.69473   -5.52419   -6.69682
       O    13.32825   -6.17761   -6.10311
      H1    12.44553   -6.32925   -6.40331
       H    18.02225   -2.20396   -5.98018
       O    18.01661   -2.49530   -6.95465
      H1    17.68914   -3.42836   -6.78821
       H    14.86995   -3.28065  -10.36707
       O    14.79757   -2.86029   -9.52442
      H1    13.89146   -2.46953   -9.64846

