78
frame 2 | Written by MDAnalysis XYZWriter (release 2.4.3)
       H   -10.35119   10.39746    1.07138
       O   -11.10311   10.42884    1.66307
      H1   -11.73392   11.05016    1.32001
       H   -10.38729    7.77130    8.26222
       O    -9.70234    7.74949    8.93327
      H1    -9.98975    7.05509    9.50084
       H   -11.68750   10.64192    9.37890
       O   -12.51005   10.86257    8.93765
      H1   -12.66282   11.69624    9.37495
       H    -7.64265   15.80757    4.59675
       O    -8.58621   15.88058    4.30988
      H1    -8.55860   15.04000    3.79986
       H    -9.91695    6.63847    4.83251
       O    -9.02478    6.51718    4.43997
      H1    -8.46052    6.47383    5.24875
       H    -8.20210   12.25474    7.04633
       O    -7.57017   12.95349    7.09903
      H1    -7.82907   13.74779    6.61398
       H   -11.44264    7.22713    6.82831
       O   -10.93473    7.95436    6.40138
      H1   -11.61322    8.46200    5.88685
       H    -7.62493   13.52784    1.59223
       O    -6.86776   13.42702    1.01333
      H1    -7.17699   12.71039    0.45760
       H   -13.65408   12.21073    0.20814
       O   -13.81201   11.54889    0.83812
      H1   -14.38385   10.96423    0.33702
       H   -13.99259   14.45513    7.04758
       O   -14.33116   15.35816    7.13440
      H1   -15.14215   15.15452    7.63142
       H   -12.40983    7.54626    4.09174
       O   -12.07530    6.63744    4.18580
      H1   -12.63734    6.25120    4.96000
       H   -10.10142   12.11271   10.57898
       O   -10.83050   12.68494   10.38056
      H1   -10.68265   13.06831    9.47650
       H   -10.01045   11.96646   -0.60644
       O   -10.33422   12.85025   -0.40760
      H1   -10.15527   13.23010   -1.29552
       H   -13.00230    9.15230    1.57258
       O   -13.50243    8.32286    1.39816
      H1   -12.77166    7.79256    1.03022
       H    -5.46717   12.04539    3.65030
       O    -4.99035   12.00178    2.80873
      H1    -5.59288   12.37417    2.14036
       H    -9.40438   16.22383    7.47021
       O    -9.77291   15.62541    6.81796
      H1    -9.31703   15.76836    5.94301
       H    -9.59271   13.06418    3.19327
       O    -9.06651   13.74630    2.68255
      H1    -9.66214   14.20052    2.08106
       H   -10.33607   11.16263    3.29461
       O   -10.42869   11.90720    3.98258
      H1   -10.21950   11.49861    4.81582
       H    -8.18204    9.22037    2.80893
       O    -8.13801    8.46167    2.21792
      H1    -8.37613    7.76570    2.85677
       H   -13.18919    9.81256    4.41889
       O   -12.36422    9.29290    4.46052
      H1   -11.80341    9.63001    3.76414
       H   -12.56603   12.25014    6.08932
       O   -13.33230   11.90113    6.51416
      H1   -12.90386   11.38692    7.17976
       H    -7.63899   13.23671    8.93940
       O    -7.64053   13.10572    9.91730
      H1    -7.18065   12.21785    9.98828
       H   -10.52713   11.43013    7.01450
       O    -9.80348   10.94197    6.58469
      H1   -10.22478   10.12161    6.29181
       H    -7.16860    9.18603    4.67774
       O    -7.81483    9.97169    4.71540
      H1    -8.20480    9.72114    5.53402
       H   -12.02874   13.65978    7.65029
       O   -11.05930   13.47557    7.73445
      H1   -10.55794   14.29049    7.52375
       H    -6.11275   12.32108    5.99367
       O    -5.69085   11.66073    5.41679
      H1    -6.46947   11.01881    5.30170

