78
frame 1 | Written by MDAnalysis XYZWriter (release 2.4.3)
       H     9.38239   -2.80629   16.66191
       O     9.86744   -2.87005   17.47713
      H1    10.04684   -3.79300   17.61097
       H    16.37897   -2.96396   17.16204
       O    16.02428   -2.15718   16.71880
      H1    15.23176   -2.50122   16.28915
       H    11.96851    1.36457   13.77667
       O    12.39589    0.55567   14.11142
      H1    12.97401    0.15876   13.44201
       H    10.26784   -8.85195   16.98622
       O     9.77761   -8.35556   16.27500
      H1     9.17048   -7.74932   16.80982
       H    12.15346   -7.14433   14.27048
       O    11.30456   -6.69693   14.24910
      H1    10.59110   -7.34149   14.59125
       H    11.45598   -4.72610   13.74561
       O    11.66147   -3.82308   13.99614
      H1    11.84310   -3.46789   13.11951
       H     4.99464   -3.98110   16.17567
       O     5.27040   -3.57997   15.32879
      H1     4.55389   -3.65902   14.68002
       H    12.85574   -3.01526   15.01488
       O    13.56960   -2.50857   15.36855
      H1    13.11752   -1.86404   15.96342
       H     5.18829    2.28568   17.44388
       O     5.65587    1.90597   16.62849
      H1     6.53241    1.57253   16.81135
       H     7.01860   -6.27662   13.66143
       O     7.20548   -6.29591   12.71355
      H1     8.12423   -6.70427   12.70666
       H    10.22409   -6.21525   17.09298
       O    11.10401   -5.72820   17.02173
      H1    11.30356   -5.93243   16.11912
       H     9.80653    0.35838   13.20346
       O     8.92881    0.27738   13.60701
      H1     8.19289    0.83209   13.22077
       H     9.20102   -1.26925   18.74044
       O     9.02618   -1.04360   19.68149
      H1     8.95064   -0.11917   19.64265
       H    14.11043    1.49065   18.87339
       O    14.83591    0.84540   18.99512
      H1    14.60926    0.02137   19.34597
       H    13.04160   -4.96844   17.44298
       O    13.90261   -4.58778   17.40254
      H1    13.82909   -3.84776   16.77442
       H     7.53147   -4.62094   12.72702
       O     7.97802   -3.74846   12.68411
      H1     8.31170   -3.50216   13.53995
       H    12.71904   -1.38448   18.38032
       O    12.32205   -1.21535   17.50939
      H1    11.70885   -1.94126   17.43644
       H    10.54561    1.41923   18.65112
       O    10.94468    1.40902   17.78090
      H1    11.50764    0.63543   17.80495
       H     7.23640   -0.87162   15.98894
       O     6.30855   -1.10410   16.16927
      H1     6.12196   -1.88959   15.66523
       H     3.30764   -4.34178   17.82822
       O     4.25381   -4.35916   17.91566
      H1     4.56513   -3.52861   18.29158
       H     5.86086   -6.34324   15.66218
       O     6.58022   -5.72653   15.47458
      H1     6.15286   -4.85197   15.33745
       H    15.47218   -2.84177   19.47611
       O    14.86826   -2.17008   19.27654
      H1    15.24822   -1.80330   18.46449
       H     9.14643    0.48659   15.34045
       O     9.07933    0.28242   16.28975
      H1     9.77129    0.83992   16.68604
       H     7.61924   -6.24824   16.72713
       O     8.11032   -6.65753   17.42954
      H1     7.51482   -7.35656   17.70944
       H    10.34997   -2.63959   14.65311
       O     9.42600   -2.33709   14.73930
      H1     9.43849   -1.39006   14.62966
       H     6.06984   -1.45097   19.28046
       O     5.78971   -2.13422   18.69329
      H1     5.98835   -1.81802   17.80354

