78
frame 1 | Written by MDAnalysis XYZWriter (release 2.4.3)
       H   -14.25823  -12.35939   10.35692
       O   -13.77482  -12.18705    9.54969
      H1   -14.01186  -11.27909    9.32693
       H   -17.41496  -10.51785   11.74062
       O   -17.31050  -11.30208   12.33638
      H1   -18.24136  -11.65391   12.35073
       H   -14.54924   -8.07821    7.58437
       O   -15.43917   -8.22731    7.98138
      H1   -15.62183   -7.54921    8.62500
       H   -12.47711   -9.93713   10.62536
       O   -11.78493  -10.58564   10.72414
      H1   -12.17041  -11.34244   10.21062
       H   -17.52250   -9.38614    6.00061
       O   -17.25010   -9.87408    6.76623
      H1   -16.67246   -9.25723    7.24471
       H   -18.99211  -13.36539    4.61097
       O   -18.57917  -12.58111    4.20859
      H1   -17.60332  -12.76921    4.16728
       H   -18.80048  -16.23333    9.77901
       O   -18.42709  -15.74360   10.55638
      H1   -18.44374  -14.79218   10.22383
       H   -11.72535  -14.66143    8.18848
       O   -11.15873  -15.04323    8.90047
      H1   -11.50788  -15.89852    9.05498
       H   -15.42969  -13.15623    8.64733
       O   -16.22505  -13.38803    8.17560
      H1   -16.20679  -14.31435    7.93612
       H   -14.22150  -12.60244   12.81061
       O   -14.49560  -11.81135   12.37444
      H1   -15.46448  -11.80861   12.32631
       H   -19.40073  -12.62144    6.60147
       O   -19.65781  -11.86098    7.10988
      H1   -18.80570  -11.42195    7.35825
       H   -11.17650  -13.37484    5.73628
       O   -10.33634  -13.05961    5.39588
      H1    -9.71439  -13.76917    5.35845
       H   -15.05876  -15.32742   11.55110
       O   -14.73604  -14.66418   12.19709
      H1   -15.32298  -14.64357   12.96268
       H   -13.60737  -17.44440    6.75175
       O   -14.41856  -17.88849    7.10815
      H1   -14.27847  -18.78308    6.71259
       H   -14.66458   -8.85486   11.08149
       O   -14.10714   -8.94392   10.33892
      H1   -14.66420   -8.76052    9.61559
       H   -12.03820  -14.58495   10.77924
       O   -11.98225  -14.28377   11.73104
      H1   -12.89207  -14.53191   12.09888
       H   -14.80581  -11.76985    3.48336
       O   -15.28065  -12.43856    4.01870
      H1   -15.29130  -12.11065    4.93154
       H   -17.43233  -13.17307    9.35886
       O   -18.12921  -13.01630   10.01431
      H1   -17.78642  -12.54340   10.79513
       H   -18.88975  -17.63447    7.94547
       O   -19.08515  -16.69789    8.08834
      H1   -19.64594  -16.45477    7.36177
       H   -15.86837  -16.51967    7.71074
       O   -16.53719  -16.04774    7.19548
      H1   -17.40014  -16.11804    7.66962
       H   -17.75130  -17.80054    5.02624
       O   -17.31386  -16.98385    4.86826
      H1   -16.90229  -16.65878    5.71746
       H   -13.02484  -12.86801    7.09060
       O   -12.78922  -13.77992    6.80794
      H1   -13.48974  -14.17973    6.28563
       H   -15.61057  -10.86248    6.70559
       O   -14.78465  -11.17104    6.37171
      H1   -14.35941  -10.37342    5.98582
       H   -15.16532  -14.08489    4.71052
       O   -14.61609  -14.79684    5.12683
      H1   -15.16506  -15.11777    5.83858
       H   -12.02863  -18.16543    9.65107
       O   -12.50799  -17.35718    9.87024
      H1   -13.42481  -17.37399    9.60361
       H   -16.74418  -16.43633   10.46574
       O   -15.83635  -16.67260   10.41035
      H1   -15.61375  -17.42151   11.02106

