78
frame 1 | Written by MDAnalysis XYZWriter (release 2.4.3)
       H    19.07243   16.87303  -16.93337
       O    19.82388   16.96144  -17.53498
      H1    19.81780   17.82847  -18.02018
       H    11.38745   16.58328  -16.34464
       O    12.05692   15.93826  -16.56072
      H1    11.69546   15.08602  -16.72504
       H    15.11202   14.63878  -15.57576
       O    15.28546   14.62599  -14.60923
      H1    14.93804   13.73238  -14.36883
       H    17.11766   15.60098  -12.11121
       O    16.82973   15.88495  -11.24799
      H1    16.37434   15.15499  -10.82871
       H    17.73333   17.08440  -14.77676
       O    17.71277   17.62252  -15.61301
      H1    16.71503   17.64020  -15.89580
       H    17.78091   14.84391  -18.43778
       O    17.70409   13.96729  -18.06189
      H1    18.60336   13.83631  -17.77961
       H    16.98844   13.59354  -15.16364
       O    17.94522   13.42069  -15.12164
      H1    18.06894   12.76420  -14.40127
       H    10.33025   19.15908  -15.76348
       O    10.81874   18.60330  -15.18532
      H1    10.25749   17.86629  -14.86728
       H    15.67571   17.29435  -11.40827
       O    15.38730   18.25005  -11.40166
      H1    15.21258   18.35956  -10.46765
       H    18.85108   19.81268  -11.24355
       O    19.26210   19.16588  -11.82425
      H1    18.60236   18.47842  -11.98969
       H    16.79754   10.97026  -17.82512
       O    15.82917   11.14577  -17.84511
      H1    15.70918   12.12066  -17.76973
       H    13.93659    9.81433  -15.49119
       O    14.72887   10.42133  -15.50774
      H1    14.92844   10.43257  -16.43205
       H     8.84985   16.82201  -18.88716
       O     8.96943   17.31717  -18.03870
      H1     9.81961   17.73193  -18.23428
       H    18.43077    9.49033  -17.62858
       O    18.59783   10.41846  -17.98740
      H1    19.58471   10.48975  -18.11914
       H    15.80331   16.80139  -18.44511
       O    16.19958   16.04923  -18.91689
      H1    15.83970   15.26931  -18.57641
       H    14.51443   18.50227  -13.46623
       O    14.60198   19.16924  -14.12512
      H1    15.34162   19.69708  -13.79688
       H    14.71257   11.73487  -13.92126
       O    14.17050   12.38957  -13.54822
      H1    14.30927   12.39955  -12.61320
       H     9.40386   13.58547  -18.98080
       O     9.18007   13.11567  -18.18431
      H1     8.70704   13.93648  -17.79583
       H    12.20214   16.92221  -18.20177
       O    11.81739   17.32484  -19.01319
      H1    12.39536   18.02692  -19.25175
       H    13.51795   15.51760  -14.11677
       O    12.96431   16.22112  -13.85515
      H1    12.42035   16.47491  -14.60054
       H    12.34042   11.92493  -17.72513
       O    12.50249   11.44015  -18.54048
      H1    13.05338   10.71590  -18.24572
       H    19.10970   16.01852  -13.52894
       O    18.12033   15.78461  -13.64017
      H1    18.14251   14.99872  -14.22937
       H    10.77925   16.65324  -11.44362
       O    11.00268   15.81737  -11.90462
      H1    11.76372   16.03635  -12.46926
       H    14.94158   18.39389  -16.28610
       O    14.85989   17.45767  -16.46268
      H1    14.31675   17.02555  -15.74715
       H    10.65918   13.14808  -17.06578
       O    11.53980   12.97935  -16.76099
      H1    11.49150   12.53843  -15.87539
       H    14.50281   13.87435  -18.03456
       O    15.09988   13.71846  -17.29323
      H1    16.01431   13.84394  -17.53754

