78
frame 1 | Written by MDAnalysis XYZWriter (release 2.4.3)
       H    -1.35804    9.81857    8.75902
       O    -2.32581    9.94014    8.93918
      H1    -2.71785    9.03075    8.83605
       H    -5.75142   13.11015   15.81154
       O    -5.42778   13.80362   16.48960
      H1    -6.16882   14.37513   16.45599
       H    -6.86047   11.54020   14.47769
       O    -6.71152   12.50018   14.47858
      H1    -7.52859   12.93906   14.70871
       H   -10.94733    8.31248    9.77606
       O   -10.81608    8.68379   10.70589
      H1   -11.32910    8.10350   11.34901
       H    -7.83753   12.27804    6.68721
       O    -7.77871   13.13192    7.07901
      H1    -8.60748   13.57411    6.88271
       H    -5.92617   10.12674   10.66301
       O    -5.97998   10.95096   11.14334
      H1    -5.87698   10.70716   12.07354
       H    -2.55135   14.03731    8.21264
       O    -3.23067   14.70757    8.10615
      H1    -3.09279   14.98754    7.11460
       H    -8.05597   14.73288   12.46747
       O    -7.24788   14.97180   12.03246
      H1    -7.00076   14.30282   11.37885
       H   -10.50259   13.83378   11.88392
       O   -11.34117   14.20010   12.09593
      H1   -11.76282   13.35109   12.32833
       H    -9.25695    7.65261   10.53024
       O    -8.49361    7.19636   10.18661
      H1    -7.79666    7.78442   10.20491
       H    -2.26848    9.45697   14.11831
       O    -3.08180    9.47373   13.61340
      H1    -2.94989   10.26332   13.07099
       H    -1.65681   11.89698   11.17253
       O    -0.80101   12.36215   11.09068
      H1    -0.89841   12.72651   10.18907
       H    -9.82407   11.98066   10.96329
       O    -9.86843   12.39581   10.09971
      H1    -8.96302   12.74238   10.01291
       H    -3.33544    8.24557   12.30433
       O    -3.63005    7.69590   11.51985
      H1    -4.02927    7.00465   12.00903
       H    -4.33713   11.44870   11.31950
       O    -3.36689   11.41527   11.34996
      H1    -3.10287   10.79135   10.63948
       H    -9.56002   10.92269   13.99516
       O    -9.27074   10.76211   14.91559
      H1    -9.84830   11.38852   15.37760
       H    -5.64356    8.17945    8.95491
       O    -5.83884    8.38673    9.88562
      H1    -4.99686    8.01286   10.26217
       H    -6.19264    8.95512   14.38675
       O    -5.96704    9.75170   13.98281
      H1    -5.03571    9.72202   13.74788
       H    -5.45440   15.38039   13.73692
       O    -4.55103   15.47842   14.14985
      H1    -4.52450   14.73320   14.80537
       H    -2.74576   10.69530    7.40324
       O    -2.58658   11.32868    6.64060
      H1    -3.41464   11.75923    6.39496
       H    -7.33424   12.94743    8.71907
       O    -7.14727   13.06447    9.67642
      H1    -6.98881   12.13302   10.03116
       H    -4.85311   15.13257    8.56953
       O    -5.69731   15.64076    8.74953
      H1    -6.39019   15.04922    9.03728
       H   -10.28427   10.15958   11.84895
       O   -10.57068   11.01796   12.33087
      H1   -11.57454   11.02719   12.26872
       H    -7.29630   10.35714    5.10535
       O    -7.31210   10.66610    6.02250
      H1    -8.26661   10.63041    6.14865
       H    -6.27224    7.50706    7.29849
       O    -5.41290    7.92771    7.34899
      H1    -4.91875    7.10255    7.42193
       H    -5.50548   13.29008    5.80215
       O    -4.97835   12.51813    5.54297
      H1    -5.50793   11.79296    5.82140

