78
frame 1 | Written by MDAnalysis XYZWriter (release 2.4.3)
       H   -17.16904   -1.27878  -11.13651
       O   -16.56447   -1.08097  -11.91575
      H1   -16.68617   -1.82070  -12.48372
       H    -9.66010   -3.54828  -16.98084
       O    -9.83572   -4.46274  -16.72915
      H1   -10.54761   -4.76726  -17.31632
       H   -14.78073   -0.13439  -12.17384
       O   -14.20470    0.51320  -12.57651
      H1   -14.36040    0.28253  -13.51905
       H    -7.62319   -1.66047  -16.76195
       O    -8.43438   -2.07749  -17.20397
      H1    -9.21102   -1.50116  -17.07663
       H   -12.33344    1.32767  -15.06636
       O   -13.31001    1.52316  -15.30746
      H1   -13.37450    2.35233  -14.81784
       H   -17.42920   -5.01921  -14.82294
       O   -18.33622   -5.02192  -15.17895
      H1   -18.83729   -5.56383  -14.56027
       H   -14.32583   -0.89109  -10.05988
       O   -14.24566   -1.85440   -9.99042
      H1   -14.26153   -2.17687  -10.88299
       H   -15.21821   -0.30651  -17.37776
       O   -14.30341   -0.31612  -17.17509
      H1   -14.22806    0.40853  -16.56761
       H   -12.49196   -4.31984  -18.67407
       O   -11.84605   -5.04622  -18.60970
      H1   -11.41748   -5.16304  -19.46055
       H   -12.38534   -0.06540  -11.94427
       O   -11.42536   -0.25440  -12.14007
      H1   -11.28560   -0.08983  -13.07934
       H   -11.62638   -5.70568  -14.06508
       O   -11.51554   -4.77612  -14.27565
      H1   -10.89125   -4.64398  -15.01836
       H   -12.55404    1.05137  -19.86103
       O   -13.32607    0.48657  -19.98413
      H1   -13.48860    0.17815  -19.07504
       H   -14.87702   -5.21242  -14.99599
       O   -15.63978   -4.98450  -14.37716
      H1   -15.80094   -5.82375  -13.92597
       H   -11.33105   -2.15818  -12.06301
       O   -10.87185   -3.02119  -11.95590
      H1   -11.16691   -3.57358  -12.67680
       H   -13.88761   -2.52301  -17.83776
       O   -13.69141   -3.05863  -18.56527
      H1   -14.26551   -2.98536  -19.27207
       H    -8.19443   -0.68171  -12.86573
       O    -8.34689   -1.57439  -13.20912
      H1    -8.83504   -2.07084  -12.55323
       H   -13.90645   -5.03323  -17.08437
       O   -13.89620   -5.66179  -16.36749
      H1   -12.98931   -5.93050  -16.15933
       H   -12.81604   -8.16652  -13.59649
       O   -12.14765   -7.54343  -13.92396
      H1   -11.41658   -8.13828  -14.11355
       H   -15.14602   -0.96848  -15.66373
       O   -15.18438   -1.17495  -14.72564
      H1   -15.40152   -2.11049  -14.73469
       H   -17.21092   -4.06238  -17.47759
       O   -16.58450   -4.72029  -17.83190
      H1   -16.70660   -5.51462  -17.34271
       H   -13.44121   -2.13318  -14.70294
       O   -12.87975   -2.61231  -15.36760
      H1   -12.29918   -3.21271  -14.83732
       H   -11.50399   -0.90874  -17.69868
       O   -11.14657   -1.26616  -16.91649
      H1   -11.92811   -1.71310  -16.50070
       H   -12.61588   -8.24806  -18.04828
       O   -12.80828   -7.61625  -18.81258
      H1   -12.41158   -6.78254  -18.49120
       H   -10.78407   -0.25851  -15.50515
       O   -10.77778    0.34859  -14.76665
      H1   -10.19262    1.01949  -15.10604
       H   -18.35915   -2.18744  -13.24448
       O   -17.92375   -2.56887  -14.01768
      H1   -18.36817   -3.35892  -14.27857
       H   -14.87316   -3.75466  -13.14291
       O   -14.42062   -3.35519  -12.38214
      H1   -13.80533   -4.02809  -12.05360

