78
frame 2 | Written by MDAnalysis XYZWriter (release 2.4.3)
       H    17.78129  -11.04160  -16.19797
       O    18.63988  -11.17665  -15.80262
      H1    18.96791  -10.28805  -15.59352
       H    16.17303  -17.80988  -18.70320
       O    15.48534  -17.72545  -19.37195
      H1    15.83334  -17.90123  -20.26710
       H     9.06793  -15.27113  -17.14049
       O     9.84530  -15.19615  -16.58129
      H1    10.29767  -14.45426  -16.97732
       H    11.80236  -17.22249  -15.22376
       O    12.00344  -16.34381  -15.49440
      H1    11.22507  -15.98156  -15.83416
       H     8.24497  -19.06732  -15.38004
       O     8.79124  -19.34256  -14.61327
      H1     9.28475  -18.55806  -14.41108
       H    17.50176  -14.03548  -14.58679
       O    16.54675  -13.90015  -14.51874
      H1    16.19077  -14.81498  -14.56704
       H    11.23845  -12.63945  -17.36362
       O    10.67269  -13.06294  -18.03320
      H1     9.80403  -12.69631  -18.12461
       H    13.87008  -16.39079  -14.58975
       O    14.83330  -16.32187  -14.64788
      H1    15.12967  -16.70429  -13.74813
       H    18.33174  -18.69140  -18.54815
       O    18.86732  -19.09035  -19.19057
      H1    19.83950  -19.13539  -18.95933
       H    14.03418  -12.49867  -12.85862
       O    13.66241  -12.89790  -12.07291
      H1    14.37498  -13.31359  -11.59469
       H    18.05154  -13.51043  -18.33897
       O    18.97940  -13.34910  -18.56092
      H1    19.01055  -13.51525  -19.49991
       H    16.01318  -12.32172  -18.27899
       O    15.96729  -13.26162  -18.50510
      H1    15.56631  -13.80059  -17.79865
       H    16.37780   -9.81389  -17.51515
       O    16.73090  -10.71221  -17.78118
      H1    17.40907  -10.42983  -18.40570
       H    12.91917  -13.88283  -19.83478
       O    13.10668  -14.82781  -19.86706
      H1    13.37896  -15.01830  -18.94696
       H    13.35081  -18.78149  -14.07821
       O    12.48261  -19.10692  -14.37114
      H1    12.59323  -20.00437  -14.72760
       H    17.88728  -16.85758  -16.95560
       O    17.42056  -17.62913  -17.36238
      H1    17.42427  -18.35664  -16.69813
       H    15.51698   -8.94298  -14.92968
       O    15.16289   -9.40172  -14.11280
      H1    14.80763  -10.26777  -14.45121
       H    13.53965  -12.10226  -14.96278
       O    14.33608  -12.00624  -14.48785
      H1    15.07379  -12.49107  -14.87624
       H    10.11401  -15.74602  -13.12503
       O     9.35595  -15.89416  -13.65215
      H1     9.61250  -15.66219  -14.60661
       H    19.17169  -14.97088  -15.94363
       O    18.99243  -15.49085  -16.72289
      H1    19.01588  -14.83674  -17.48939
       H    11.96348  -15.23660  -11.61007
       O    11.70443  -14.93191  -12.48852
      H1    12.21273  -14.13614  -12.69037
       H    17.18070  -13.03793  -11.08066
       O    16.37430  -13.10868  -11.65413
      H1    16.76499  -13.44485  -12.46580
       H    11.32860  -11.03401  -15.79144
       O    12.16416  -11.46358  -16.22379
      H1    12.52310  -10.74624  -16.71156
       H    15.71641  -17.13519  -11.20837
       O    14.88061  -17.42411  -11.54797
      H1    14.87677  -18.35158  -11.29498
       H    14.81839  -16.07405  -16.94456
       O    14.75219  -15.75089  -17.81863
      H1    14.94987  -16.49633  -18.43695
       H    13.56888  -15.03105   -9.56929
       O    13.20390  -15.84707   -9.94403
      H1    13.78632  -16.16522  -10.68372

