78
frame 3 | Written by MDAnalysis XYZWriter (release 2.4.3)
       H    -5.04744    2.77207   -2.31479
       O    -4.49627    2.60335   -3.11096
      H1    -5.29594    2.52689   -3.69816
       H    -4.71053   -2.72493   -7.09226
       O    -4.04855   -2.08798   -7.48896
      H1    -4.42061   -1.55498   -8.18887
       H    -1.64890   -2.84256   -3.29275
       O    -1.98272   -2.48711   -4.14051
      H1    -2.19476   -3.24925   -4.66603
       H     1.28145   -5.73187   -3.27683
       O     0.78652   -4.94506   -3.25755
      H1     1.29828   -4.18206   -3.65151
       H    -4.29121   -0.78441   -5.77694
       O    -4.75446   -0.25240   -5.10741
      H1    -4.09412    0.39577   -4.91838
       H     0.19667    1.89968   -8.39048
       O     0.89164    2.26307   -8.92830
      H1     0.76274    2.39003   -9.84605
       H    -5.26162   -2.11873   -2.76887
       O    -4.29810   -2.34427   -2.51748
      H1    -3.81593   -1.87517   -3.25411
       H    -0.73093   -5.85432   -5.66723
       O    -1.36216   -5.34929   -5.08850
      H1    -0.82025   -5.27725   -4.31069
       H    -0.31104   -3.89103   -6.08496
       O     0.17498   -3.18304   -6.40806
      H1     0.30589   -3.33110   -7.33183
       H     0.90660   -0.72943   -1.29646
       O     1.24953   -1.67237   -1.25690
      H1     1.35194   -1.94603   -2.18051
       H    -0.04632   -2.86871   -1.55435
       O    -0.88717   -3.36415   -1.76875
      H1    -0.53721   -4.14732   -2.18412
       H    -6.44378    1.62525   -7.89247
       O    -6.28133    0.71458   -7.61124
      H1    -5.83524    0.83842   -6.74455
       H     2.73338   -2.76199   -4.20924
       O     1.79140   -2.52464   -4.16774
      H1     1.45283   -2.83922   -5.04437
       H    -1.45962   -3.73186   -8.79184
       O    -2.23757   -3.22971   -9.14460
      H1    -2.80728   -3.00438   -8.36440
       H    -1.53773   -0.50482   -4.37308
       O    -1.60181    0.46748   -4.61459
      H1    -0.72226    0.83360   -4.42109
       H    -0.67452    0.98327   -1.38485
       O     0.31250    0.90980   -1.40101
      H1     0.54865    1.36411   -2.24922
       H    -4.82601   -1.73026   -0.74630
       O    -4.91741   -1.30747    0.09678
      H1    -5.85065   -1.51208    0.44701
       H     3.38433    0.10230   -4.37912
       O     2.48540    0.14865   -4.72247
      H1     1.97254   -0.64286   -4.47098
       H     1.20968    3.02349   -3.34965
       O     0.93054    2.30567   -3.98421
      H1     1.68397    1.72383   -4.07187
       H     2.57180    0.72796   -6.37657
       O     2.53339    0.60984   -7.36732
      H1     2.08056    1.34806   -7.80479
       H    -6.08972   -1.12713   -3.89691
       O    -6.76143   -1.58223   -3.37991
      H1    -7.17979   -2.22716   -3.94387
       H    -0.99662   -0.22283   -8.40317
       O    -1.13667   -0.71689   -9.25326
      H1    -1.46257   -1.58703   -9.02928
       H    -2.18632   -1.73342    0.76263
       O    -1.69703   -1.36054    0.00935
      H1    -1.68529   -1.94971   -0.71962
       H    -3.07156    3.40561   -3.95538
       O    -2.47251    4.04556   -4.39756
      H1    -1.74943    4.23920   -3.76473
       H    -2.95013    0.36285   -1.13562
       O    -2.68524    1.27253   -1.22479
      H1    -3.10415    1.76679   -1.91545
       H    -1.12730    0.91539   -6.23088
       O    -1.08852    1.21025   -7.17442
      H1    -1.84528    1.69779   -7.38242

