78
frame 2 | Written by MDAnalysis XYZWriter (release 2.4.3)
       H    -1.21098   15.31251   -2.61605
       O    -1.88382   15.18381   -1.93549
      H1    -2.41604   15.99540   -1.93207
       H     1.26357   10.23668   -2.06300
       O     1.70408    9.37291   -2.22049
      H1     2.29088    9.32153   -1.48350
       H    -2.31799   13.15381    3.52280
       O    -2.20471   14.09849    3.31726
      H1    -3.09107   14.35451    3.05947
       H    -3.54753    9.60931    0.29694
       O    -3.83725    8.69815    0.12183
      H1    -4.01607    8.70549   -0.83511
       H    -3.05181   16.35746    1.82200
       O    -2.22351   16.88863    1.84645
      H1    -2.27623   17.30537    2.72156
       H     0.55632   12.79837   -1.09560
       O     1.11222   12.07726   -1.47133
      H1     1.94346   12.50419   -1.68220
       H     0.63414    7.51306    1.63701
       O     1.48692    7.19066    1.84926
      H1     1.95058    7.93073    2.30104
       H    -7.62493   13.52784    1.59223
       O    -6.86776   13.42702    1.01333
      H1    -7.17699   12.71039    0.45760
       H    -4.43481    9.08054    1.66064
       O    -4.49215    9.36101    2.54808
      H1    -4.82147   10.27148    2.57881
       H    -2.41114   11.02560   -2.13221
       O    -1.85905   10.47626   -2.68567
      H1    -2.50781   10.27592   -3.35409
       H    -0.59477   15.15417    2.68829
       O     0.24128   15.19272    2.25916
      H1     0.61483   16.06428    2.61484
       H    -0.54457   13.96917    0.98740
       O    -0.77895   13.49431    0.18682
      H1    -1.30766   14.11965   -0.35253
       H    -5.54126   14.91992    2.16945
       O    -4.62623   15.26625    2.21513
      H1    -4.79338   16.17364    2.61466
       H    -5.46717   12.04539    3.65030
       O    -4.99035   12.00178    2.80873
      H1    -5.59288   12.37417    2.14036
       H    -5.76979   11.38928   -1.09931
       O    -6.56418   10.88278   -0.98002
      H1    -6.29191    9.95330   -1.17866
       H    -0.81874   16.93606    0.52949
       O    -0.30432   17.32211   -0.22565
      H1    -0.39048   16.59969   -0.81284
       H    -1.92557    7.99233    3.96241
       O    -2.06281    8.89818    3.63562
      H1    -2.98212    8.87325    3.22663
       H    -2.11021   11.77494    5.20805
       O    -1.57740   11.66006    4.42029
      H1    -1.76566   10.69607    4.20417
       H    -2.87951   11.62289    1.93916
       O    -2.31985   11.18548    1.25378
      H1    -1.90869   11.97780    0.87909
       H    -1.55220    8.60851    1.19566
       O    -1.16746    7.74068    0.95021
      H1    -0.93871    7.88907    0.02289
       H     1.60324   11.50574    2.04293
       O     2.03356   11.27812    1.23733
      H1     1.43213   11.49941    0.47966
       H    -4.30012   12.10989   -2.61886
       O    -3.94665   12.26302   -1.73280
      H1    -3.59680   13.14895   -1.83397
       H     0.38676   12.37133    3.97204
       O     1.20548   12.86414    3.78616
      H1     1.02266   13.64455    3.22316
       H     0.11070   12.64320   -4.25947
       O    -0.47595   11.94609   -4.47651
      H1    -0.73907   11.54305   -3.66155
       H     0.26204    8.56798   -2.12343
       O    -0.50421    8.01623   -1.97868
      H1    -1.24660    8.55848   -2.15348
       H    -4.47112   15.34100    5.40079
       O    -3.47766   15.38673    5.48027
      H1    -3.08510   14.57175    5.04483

