78
frame 3 | Written by MDAnalysis XYZWriter (release 2.4.3)
       H     9.96908   -5.48946  -10.09118
       O    10.82500   -5.38565   -9.53734
      H1    11.24291   -6.19842   -9.81842
       H    13.54824   -4.72234   -4.15316
       O    14.25373   -5.38802   -4.12345
      H1    13.99528   -6.17537   -4.66487
       H    13.84897    0.53265   -9.34249
       O    13.06203    1.04040   -9.61576
      H1    12.44464    0.37104   -9.87763
       H    11.76838   -0.76337   -7.48199
       O    12.19159   -1.54781   -7.80483
      H1    12.39834   -1.40746   -8.67530
       H    18.07518   -5.61510   -2.86524
       O    18.26628   -5.53164   -3.82717
      H1    17.55329   -4.89483   -4.08566
       H    14.34913   -2.35634  -11.68248
       O    14.29330   -2.89143  -10.90604
      H1    13.28403   -2.95757  -10.71560
       H    12.35596   -8.82472   -9.37401
       O    12.28030   -7.86669   -9.14463
      H1    12.92778   -7.56935   -8.44797
       H    10.15847   -4.47938   -8.23275
       O     9.63853   -3.85503   -7.62568
      H1     8.77977   -4.31746   -7.41879
       H    14.64267   -3.73902   -7.68094
       O    14.52197   -4.66337   -7.47505
      H1    13.59154   -4.74413   -7.17991
       H    13.56553   -7.55358   -5.94061
       O    14.22304   -7.58050   -6.65896
      H1    14.43862   -6.66499   -6.97161
       H    17.70558   -6.95144   -6.80916
       O    18.37814   -6.42465   -7.22901
      H1    18.90744   -6.06824   -6.51373
       H    16.17374   -1.76271   -8.30125
       O    15.42221   -1.36608   -8.69258
      H1    15.21510   -1.91721   -9.46262
       H    15.71242   -4.35920   -4.68316
       O    16.42945   -3.75964   -4.92012
      H1    16.27481   -3.00945   -4.39375
       H    11.38772   -3.67571  -10.23202
       O    11.56987   -2.91994  -10.72153
      H1    10.80783   -2.34813  -10.68107
       H    12.09359   -3.32584   -4.97220
       O    12.63701   -2.57695   -5.21839
      H1    12.34841   -2.37393   -6.11994
       H    16.87158   -7.31993  -10.08557
       O    15.91562   -7.47953  -10.32979
      H1    15.78682   -8.33483   -9.88655
       H    15.82217    0.23745   -5.10880
       O    16.57765    0.70349   -4.67483
      H1    16.74171    0.09995   -3.91352
       H    18.65578   -6.75403   -8.97042
       O    18.82276   -7.14770   -9.87723
      H1    19.17984   -6.36168  -10.37967
       H    14.29610   -1.19065   -2.79080
       O    14.81808   -1.82359   -3.35399
      H1    14.20536   -1.66461   -4.17090
       H    15.12907   -6.40335  -11.45013
       O    14.59111   -5.70401  -11.97635
      H1    14.42521   -4.98828  -11.36141
       H    14.66445   -0.05766   -7.38015
       O    14.50688    0.60207   -6.71766
      H1    13.53294    0.66423   -6.82337
       H    15.70961   -8.67376   -6.29493
       O    16.48330   -9.22021   -6.13221
      H1    16.75422   -8.94358   -5.24122
       H    16.41014    0.99363  -10.64237
       O    17.04422    0.28420  -10.33928
      H1    16.48920   -0.19937   -9.71731
       H    10.63165   -4.37539   -6.11069
       O    11.05645   -4.81423   -5.37290
      H1    10.69219   -5.70514   -5.33750
       H    17.43392   -2.78998   -6.51796
       O    17.54243   -2.65367   -7.49438
      H1    17.32673   -3.52955   -7.88598
       H    16.30511   -5.19597   -9.81559
       O    16.73033   -4.36129   -9.91095
      H1    16.11192   -3.90959  -10.52024

