78
frame 2 | Written by MDAnalysis XYZWriter (release 2.4.3)
       H    18.96625  -11.76897   13.49394
       O    19.40763  -12.48386   13.04572
      H1    19.40766  -13.29771   13.63469
       H    10.92100  -16.75466   11.67842
       O    11.27832  -17.07236   10.78886
      H1    10.54971  -17.51241   10.28132
       H    12.56870  -18.51076   11.00072
       O    13.04103  -19.25019   11.38538
      H1    12.90501  -19.94479   10.70108
       H    14.54830  -17.11311   14.07776
       O    14.34718  -17.48030   14.95603
      H1    13.73493  -16.83913   15.34666
       H    15.98725  -12.77802    6.08554
       O    15.89464  -12.91914    5.11609
      H1    16.55696  -12.27623    4.75704
       H    16.64950  -16.51818   12.54090
       O    17.06738  -16.82587   11.70903
      H1    17.98208  -17.03405   11.93803
       H    19.12653  -12.94897   11.42199
       O    18.82789  -13.20834   10.51159
      H1    19.68660  -13.16969   10.06838
       H    20.11985  -15.01236    5.22045
       O    19.66379  -14.18172    4.96039
      H1    19.02464  -14.50470    4.30618
       H    19.02121  -17.83766    1.95149
       O    18.78195  -18.67947    2.46052
      H1    17.79290  -18.84653    2.36534
       H    17.47555  -18.17404   16.39670
       O    18.03564  -18.93655   16.24266
      H1    17.40728  -19.64237   16.01284
       H    13.73690  -13.33617    9.85377
       O    13.63694  -12.48107    9.46798
      H1    12.76943  -12.43586    9.05529
       H    19.80260  -15.72267   13.48707
       O    19.88968  -14.98612   14.12326
      H1    19.31314  -15.12831   14.87924
       H    15.29510  -12.26689    7.98559
       O    16.00899  -11.77228    7.54220
      H1    16.76025  -11.50064    8.16034
       H    17.32528  -18.27744    8.20161
       O    18.00640  -18.72670    8.74985
      H1    17.51898  -19.13931    9.49035
       H    14.64889  -15.03962   11.08883
       O    15.26541  -14.38961   10.76360
      H1    16.05566  -14.95432   10.45858
       H    12.66770  -19.42918    8.33340
       O    13.59481  -19.12541    8.22492
      H1    14.12510  -19.91453    8.38682
       H    15.94270  -15.84145    3.79575
       O    15.11759  -15.27084    3.70378
      H1    15.25865  -14.59783    4.42093
       H    12.27197  -16.11609    8.94574
       O    12.60601  -16.63684    8.17664
      H1    12.88536  -17.46708    8.49546
       H    12.86297  -16.61199   12.98744
       O    13.64132  -16.06643   12.72525
      H1    13.45498  -15.19927   13.13706
       H    17.92766  -14.76683    9.65137
       O    17.64211  -15.65265    9.46847
      H1    17.44335  -16.03748   10.37641
       H    13.93824  -18.27398    4.69672
       O    14.31798  -18.90934    5.31392
      H1    13.70472  -18.84767    6.07807
       H    16.89918  -13.90111   14.81221
       O    16.16435  -14.57192   14.86837
      H1    16.37076  -15.02002   15.71332
       H    17.01030  -16.70263    5.44749
       O    17.38582  -16.59600    4.51244
      H1    17.37566  -17.47867    4.15585
       H    16.46072  -16.24093    7.72912
       O    16.45341  -17.01925    7.14963
      H1    15.60366  -17.12231    6.72497
       H     9.95338  -15.81733    6.96228
       O    10.12334  -16.76327    6.95822
      H1    11.05994  -16.86833    7.22196
       H    15.46625  -17.23774   16.13876
       O    15.93538  -17.13693   17.00244
      H1    15.59650  -16.33219   17.36432

