78
frame 2 | Written by MDAnalysis XYZWriter (release 2.4.3)
       H   -14.11610  -11.28138   10.09503
       O   -14.09948  -11.86514    9.35560
      H1   -14.11059  -11.23684    8.60144
       H   -11.24208  -14.39765   14.79323
       O   -11.54555  -15.27460   14.50515
      H1   -12.33108  -15.01517   13.94149
       H   -17.83100   -9.82912   11.65890
       O   -17.86538  -10.73149   12.02754
      H1   -18.74577  -10.98183   12.41223
       H   -13.59036  -11.17205   15.73234
       O   -13.29599  -11.74338   16.43842
      H1   -12.98502  -11.19438   17.20925
       H   -14.52764   -7.79629    8.48773
       O   -15.23239   -8.26871    8.94098
      H1   -15.70711   -7.63384    9.43553
       H   -17.36022   -7.40734   10.94260
       O   -17.75585   -8.28174   10.88912
      H1   -18.69608   -8.12658   10.63900
       H   -15.39893  -12.34713   16.51323
       O   -16.30334  -12.53465   16.71849
      H1   -16.31333  -13.43789   16.41136
       H   -11.44028  -10.18069   10.60223
       O   -10.65515  -10.51729   11.14755
      H1   -10.90742  -11.32373   11.66103
       H   -16.86006   -9.60722   13.30727
       O   -16.57067   -9.04622   14.04513
      H1   -15.62129   -9.25702   14.24490
       H   -17.93661  -15.98333   10.10806
       O   -17.53886  -15.82380   11.00271
      H1   -17.82240  -14.92122   11.09662
       H   -11.93916  -12.34244   15.31082
       O   -11.10342  -12.61424   14.96444
      H1   -11.19701  -12.75597   14.03213
       H   -15.70189  -12.92967    8.22494
       O   -16.10088  -13.83739    8.28714
      H1   -15.40163  -14.43721    8.53656
       H   -15.55357  -13.03244   13.29675
       O   -15.48352  -12.14839   12.96835
      H1   -16.43942  -11.91607   12.78387
       H   -18.40044  -13.07615   17.38219
       O   -19.37832  -13.06820   17.50981
      H1   -19.79175  -12.36429   16.98943
       H   -14.21401  -15.26194   12.68965
       O   -14.32970  -14.70185   13.48034
      H1   -15.16292  -14.91899   13.79018
       H   -12.20837   -6.99024   11.51694
       O   -12.73061   -7.38796   12.24973
      H1   -13.06351   -6.64870   12.70220
       H   -13.18860   -8.73505   11.22995
       O   -13.22869   -9.36505   10.52853
      H1   -14.02360   -9.11970   10.04944
       H   -11.20817  -13.95008   11.74006
       O   -11.55280  -13.16769   12.16534
      H1   -12.48294  -13.48887   12.37088
       H   -16.65665   -7.76624   15.17694
       O   -16.54680   -6.86890   15.59257
      H1   -16.69784   -6.86446   16.58129
       H   -17.10480  -13.27104    9.44623
       O   -17.70519  -13.09291   10.19164
      H1   -17.48818  -12.21887   10.47693
       H   -16.75964   -9.77902   17.40708
       O   -16.40783   -9.40322   18.20082
      H1   -16.51945   -8.47196   18.05193
       H   -12.76571  -12.92912    8.83127
       O   -12.06361  -13.41168    8.40254
      H1   -12.53876  -13.98266    7.78413
       H   -17.21333  -11.26055   15.99053
       O   -17.90982  -10.58443   15.95476
      H1   -17.62234  -10.03673   15.16047
       H   -15.74036  -16.05677   11.27500
       O   -14.81087  -16.32458   11.25667
      H1   -14.91645  -17.23545   11.41093
       H   -17.31260  -15.17451   15.03742
       O   -16.42206  -14.93200   15.18724
      H1   -15.95212  -15.72490   15.34114
       H   -14.14346  -10.96409   13.58126
       O   -13.91862  -10.29200   14.22041
      H1   -13.03126  -10.00734   14.01731

