78
frame 2 | Written by MDAnalysis XYZWriter (release 2.4.3)
       H   -14.93123   -5.75828   10.02260
       O   -15.87593   -6.01587   10.18879
      H1   -16.36393   -5.26374    9.84217
       H   -17.11967   -4.79915   13.23553
       O   -16.40026   -4.34604   13.65898
      H1   -16.67898   -3.86402   14.45915
       H   -19.45823   -5.49914   12.11218
       O   -18.95535   -4.66923   12.42198
      H1   -19.53803   -3.92722   12.36122
       H   -14.60717   -0.27621   15.13207
       O   -13.65909   -0.48734   15.08884
      H1   -13.54454   -0.82319   14.20435
       H   -14.52764   -7.79629    8.48773
       O   -15.23239   -8.26871    8.94098
      H1   -15.70711   -7.63384    9.43553
       H   -16.58161   -2.82975   12.46249
       O   -16.89509   -1.96069   12.12955
      H1   -17.81608   -1.80557   12.42690
       H   -17.36022   -7.40734   10.94260
       O   -17.75585   -8.28174   10.88912
      H1   -18.69608   -8.12658   10.63900
       H   -16.86006   -9.60722   13.30727
       O   -16.57067   -9.04622   14.04513
      H1   -15.62129   -9.25702   14.24490
       H   -14.15337   -3.99490    9.44644
       O   -13.58985   -4.79758    9.25734
      H1   -13.98385   -5.02836    8.39483
       H   -17.94566   -6.12034   14.81528
       O   -18.91895   -6.00891   14.91403
      H1   -19.18619   -5.39305   14.19854
       H   -15.45288    1.24577   12.28024
       O   -16.04105    0.75562   12.78258
      H1   -16.01678   -0.10362   12.28626
       H   -16.90031    0.84476    9.30036
       O   -16.73489    0.29832   10.04872
      H1   -16.67978   -0.63050    9.75108
       H   -16.34507   -0.16890   14.26995
       O   -16.34904   -0.34247   15.22948
      H1   -16.50552   -1.27730   15.35901
       H   -15.80005   -2.44299   18.64013
       O   -16.51562   -2.08301   19.14355
      H1   -17.05909   -2.86213   19.37398
       H   -12.20837   -6.99024   11.51694
       O   -12.73061   -7.38796   12.24973
      H1   -13.06351   -6.64870   12.70220
       H   -13.92521   -2.06778   11.22191
       O   -14.51740   -2.13029   10.44895
      H1   -15.38002   -2.05012   10.88940
       H   -15.56569   -6.62430   18.67180
       O   -16.44524   -6.75965   18.30878
      H1   -17.00728   -5.99295   18.54230
       H   -13.76616   -6.21317   16.58341
       O   -14.41569   -5.59860   16.25835
      H1   -15.16228   -6.12137   15.88122
       H   -16.65665   -7.76624   15.17694
       O   -16.54680   -6.86890   15.59257
      H1   -16.69784   -6.86446   16.58129
       H   -13.38742   -3.15308   13.28833
       O   -13.18239   -2.25776   12.98779
      H1   -12.29289   -2.32341   12.73479
       H   -12.78718   -1.44057   16.55059
       O   -12.33309   -1.91026   17.26245
      H1   -11.78532   -2.59383   16.79769
       H   -15.55267   -3.22218   16.57510
       O   -16.35214   -3.05828   16.12490
      H1   -17.08838   -3.04784   16.69005
       H   -18.39884   -4.37726    9.66056
       O   -17.66648   -4.43287    9.03407
      H1   -17.51872   -3.50198    8.90462
       H   -18.09134    2.11516   16.69968
       O   -18.03610    1.67230   15.81958
      H1   -17.52164    0.80400   15.89150
       H   -14.34203   -4.32209   17.44797
       O   -14.28441   -3.61593   18.13178
      H1   -13.70934   -2.93332   17.75083
       H   -13.93658   -4.78883   14.46561
       O   -13.77291   -4.87208   13.48178
      H1   -14.69763   -4.90578   13.08874

