78
frame 0 | Written by MDAnalysis XYZWriter (release 2.4.3)
       H     8.27692    4.74388   -9.44000
       O     9.27072    4.66314   -9.36631
      H1     9.30855    4.01575   -8.60508
       H     8.89919    7.90888  -11.02213
       O     9.18687    8.54765  -10.34081
      H1     9.20180    8.21462   -9.45389
       H     3.38967    3.06920  -10.86298
       O     4.08866    2.40505  -10.64528
      H1     4.47192    2.68956   -9.79761
       H     4.08446   12.21206  -12.29233
       O     4.07699   11.86166  -11.42074
      H1     3.16831   11.77026  -11.16060
       H     3.51021    8.59232  -11.85551
       O     4.24605    8.89700  -11.26562
      H1     4.20851    9.85965  -11.27859
       H     6.15018    8.45759  -14.47501
       O     5.84101    8.84784  -15.30382
      H1     6.74405    9.10088  -15.61534
       H     9.16225    6.70743  -13.32139
       O     8.67198    7.40971  -12.88347
      H1     8.83160    8.21394  -13.32281
       H     9.91132    4.81068  -14.51962
       O    10.15476    5.20496  -13.65903
      H1    11.05854    5.55208  -13.66201
       H     3.13009    5.21894  -10.25189
       O     2.61139    4.76522  -10.94538
      H1     2.96645    5.11733  -11.77313
       H     5.54546    2.47905  -11.63239
       O     6.36628    2.17936  -12.09294
      H1     7.04083    2.87583  -12.09402
       H     6.43762    6.37752   -9.07111
       O     6.53382    5.58757   -9.69434
      H1     6.18346    5.75741  -10.61064
       H     0.21588    6.16383  -12.11206
       O     0.51937    6.29345  -13.06532
      H1     1.28199    5.73382  -13.33670
       H     8.81484    4.16740  -12.54489
       O     8.71128    3.51358  -11.82167
      H1     9.26521    3.85636  -11.04867
       H     3.82432    8.87166  -15.26293
       O     2.97905    9.12766  -15.66625
      H1     2.38786    9.05107  -14.91948
       H     7.77494    5.51277  -16.33184
       O     7.82376    4.64529  -15.88245
      H1     6.90703    4.54259  -15.57582
       H     5.42909    7.06687   -7.33814
       O     6.12264    7.42055   -7.86375
      H1     5.86203    8.34544   -7.79265
       H     5.68135   10.93687   -8.21916
       O     5.34663   10.14735   -7.68398
      H1     4.51717    9.84103   -8.02432
       H     8.80263   10.18656  -14.62569
       O     8.92042    9.91093  -13.65974
      H1     8.36566   10.50804  -13.09266
       H     7.91832   10.27610  -10.96247
       O     7.88925   11.09881  -11.50285
      H1     6.99115   11.50646  -11.47290
       H     3.72964    8.81977   -9.72603
       O     3.42323    8.78219   -8.79856
      H1     3.69464    7.88006   -8.62954
       H     6.20634   10.83646  -14.62643
       O     6.04345   11.53448  -14.02962
      H1     6.63169   12.30823  -14.24744
       H     5.18928    5.86202  -15.78238
       O     5.37558    5.41193  -14.92945
      H1     5.89970    5.97257  -14.32620
       H     7.09669    6.91223  -12.24120
       O     6.13262    6.80015  -12.39227
      H1     5.71577    7.59978  -12.10198
       H     1.36891    9.12903  -12.52330
       O     1.87788    8.53952  -13.05012
      H1     1.35632    7.75719  -13.04328
       H     4.37484    4.80514   -8.44767
       O     3.76684    5.56658   -8.56593
      H1     2.92157    5.16309   -8.32981
       H     2.88206    4.14268  -13.39892
       O     2.99336    5.07373  -13.42017
      H1     3.84392    5.28270  -13.81960

