78
frame 2 | Written by MDAnalysis XYZWriter (release 2.4.3)
       H    10.73308   -5.90542  -10.49807
       O    11.38668   -6.07494   -9.84617
      H1    11.38175   -7.02476   -9.61659
       H    13.37927   -5.45180   -4.07398
       O    14.11016   -5.48614   -3.44065
      H1    14.02661   -6.40205   -3.06585
       H    13.81782    1.27261   -9.89635
       O    13.09087    1.17783   -9.22092
      H1    12.60158    0.40152   -9.51145
       H    12.10812   -1.73745   -7.18403
       O    12.44307   -2.65501   -7.35804
      H1    11.63916   -3.08106   -7.45553
       H     9.73253    0.23086   -7.30055
       O     9.12777    0.94061   -7.24082
      H1     8.46657    0.85532   -8.01559
       H    10.45142   -3.10649  -11.94778
       O    10.55094   -3.41814  -12.83595
      H1    10.20599   -2.71381  -13.37725
       H    13.85283   -1.65185  -11.59221
       O    13.66453   -1.78062  -10.69863
      H1    12.70808   -1.99537  -10.56521
       H     9.64369    1.07618   -3.75113
       O    10.21842    0.65799   -3.11983
      H1    11.11031    0.80492   -3.39868
       H    10.56352   -4.93115   -8.60453
       O    10.04517   -4.33305   -7.96205
      H1     9.22788   -4.80750   -7.78850
       H    14.91979   -4.03674   -9.08092
       O    14.23196   -4.32826   -8.43404
      H1    13.77278   -3.54686   -8.01725
       H    13.70311   -7.26851   -7.08229
       O    14.29750   -7.04011   -7.84604
      H1    14.17900   -6.11290   -8.01153
       H    16.78421   -1.85313   -8.15534
       O    16.19395   -1.09497   -8.30933
      H1    15.65410   -1.35538   -9.05691
       H    12.94499    2.25477   -4.64463
       O    12.69797    1.37348   -4.23908
      H1    13.31456    1.43327   -3.47648
       H    16.31782   -3.60767   -4.82035
       O    17.06404   -3.50352   -4.20827
      H1    16.93757   -2.57498   -3.85888
       H    10.11988   -2.13509   -9.83439
       O    10.75436   -2.07164  -10.53488
      H1    10.69339   -1.14454  -10.86922
       H     8.67601   -1.71164   -1.97458
       O     9.34662   -1.89246   -2.62063
      H1     9.86607   -1.09974   -2.76417
       H     8.50021   -1.35422   -7.36325
       O     8.65766   -1.85678   -8.16636
      H1     9.08061   -2.70270   -7.90625
       H    12.16818   -3.51180   -4.42170
       O    12.28820   -2.56398   -4.57575
      H1    12.39001   -2.55620   -5.56836
       H    12.64104    0.43647   -5.95534
       O    12.29212    0.11180   -6.76295
      H1    12.86204    0.64700   -7.34236
       H    14.38888   -0.41124   -3.50821
       O    14.81686   -1.02951   -4.04871
      H1    14.01051   -1.50828   -4.42190
       H    15.62237    0.08762   -6.85971
       O    15.44859    0.65858   -6.09160
      H1    15.28824    0.04027   -5.35805
       H    11.52940    3.81877   -8.25405
       O    12.35673    3.36894   -8.15672
      H1    12.48738    2.66200   -8.82480
       H     7.46129   -0.13885   -4.68693
       O     7.88485   -1.01046   -4.87544
      H1     8.41312   -1.29844   -4.15997
       H    12.65119   -5.45115   -6.42050
       O    12.24975   -5.19881   -5.58032
      H1    11.31841   -5.05998   -5.86638
       H     8.68650    1.84133   -5.73857
       O     8.43543    2.48725   -5.10920
      H1     8.83597    3.30306   -5.47866
       H    16.33282   -4.33805  -10.73481
       O    15.86592   -3.58745  -10.38330
      H1    15.00151   -3.51899  -10.80008

