78
frame 3 | Written by MDAnalysis XYZWriter (release 2.4.3)
       H   -14.22272  -11.42338   10.19433
       O   -14.07727  -12.05917    9.44812
      H1   -14.53793  -11.68192    8.68563
       H    -5.93594  -16.83423   10.35913
       O    -6.25927  -16.44449    9.59164
      H1    -6.06043  -17.14969    8.89970
       H   -12.12452  -14.71842   14.61642
       O   -12.39641  -15.61853   14.48218
      H1   -13.31494  -15.57360   14.20875
       H    -9.34108  -17.44006    7.03544
       O    -9.31369  -17.66761    6.08122
      H1    -8.62661  -18.30463    5.97444
       H   -13.83791  -19.74485   11.35134
       O   -13.90149  -19.47855   12.28526
      H1   -13.03742  -19.19030   12.54820
       H    -6.40945  -17.82221   14.55185
       O    -7.12629  -18.02353   13.89878
      H1    -7.86389  -18.47614   14.32573
       H    -7.58128  -14.54296   12.38068
       O    -7.30785  -15.17382   13.00505
      H1    -7.59497  -15.99653   12.70234
       H   -17.85911  -15.78492   11.22624
       O   -17.25503  -15.71427   12.00359
      H1   -16.74744  -14.93560   11.85785
       H   -11.12538  -14.11962    9.32299
       O   -10.95501  -14.63164   10.13993
      H1   -11.09855  -15.53372   10.06963
       H   -12.53727  -19.58050    5.36987
       O   -13.15911  -18.82624    5.18220
      H1   -12.91403  -18.33522    4.39830
       H   -14.48185  -13.92330    9.75909
       O   -15.28013  -14.50597    9.86870
      H1   -14.87223  -15.18995   10.44511
       H   -11.62644  -17.67070   12.47121
       O   -11.67134  -18.26151   13.26226
      H1   -11.86231  -17.74918   14.05804
       H   -14.73016  -15.49646   12.72626
       O   -14.55285  -14.67717   13.22945
      H1   -15.19765  -14.39246   13.85816
       H    -7.34611  -19.02469   10.68049
       O    -8.05463  -18.38657   10.55058
      H1    -7.59028  -17.70376   10.14796
       H   -12.81316  -18.29271    7.25024
       O   -13.05801  -18.02406    8.13872
      H1   -13.41895  -18.81031    8.66217
       H    -6.49167  -19.45577    8.41193
       O    -6.10223  -18.71473    7.89941
      H1    -6.59602  -18.79980    7.08393
       H   -11.75836  -16.04992   16.04975
       O   -11.62788  -16.53183   16.93315
      H1   -10.65150  -16.50430   16.89459
       H    -8.47099  -16.28526    5.86748
       O    -8.10128  -15.42198    5.67251
      H1    -7.90617  -15.02327    6.55555
       H   -11.62912  -13.45455   11.53552
       O   -12.19658  -13.14210   12.28263
      H1   -12.75450  -13.92851   12.43920
       H   -14.46734  -16.84980    7.90745
       O   -15.21706  -16.33701    7.51350
      H1   -15.46680  -15.65275    8.12644
       H    -9.51397  -15.49117    8.91288
       O    -8.70427  -15.73708    8.44584
      H1    -8.01692  -15.60511    9.13436
       H   -12.80176  -12.84428    8.20967
       O   -12.12147  -13.18557    7.65319
      H1   -12.51894  -13.88544    7.09855
       H   -13.77999  -14.51719    5.19185
       O   -13.34571  -15.23522    5.65199
      H1   -14.05572  -15.63199    6.09947
       H   -10.83726  -17.93084   10.38023
       O   -11.58159  -17.32670   10.34913
      H1   -12.08933  -17.49139    9.56266
       H    -8.01238  -13.66472    7.92408
       O    -7.50975  -12.91334    7.62758
      H1    -6.55066  -12.98958    7.89218
       H   -15.71757  -16.64852   11.66689
       O   -14.77928  -16.78327   11.66549
      H1   -14.54154  -17.76024   11.73461

