78
frame 4 | Written by MDAnalysis XYZWriter (release 2.4.3)
       H   -10.91928    7.34508   -4.29154
       O    -9.98228    7.40696   -4.60589
      H1    -9.56221    7.70663   -3.82743
       H   -16.65135   11.84106   -5.24665
       O   -17.05717   11.75700   -4.40846
      H1   -17.34361   10.83572   -4.27008
       H   -12.02290    8.82278   -0.84298
       O   -11.00475    8.65806   -0.80539
      H1   -10.97108    8.09875    0.03196
       H   -14.91493    6.88253   -1.67805
       O   -14.42791    7.24275   -2.48809
      H1   -14.48519    8.22996   -2.56064
       H    -7.88067   12.03419   -4.97254
       O    -7.61201   12.96201   -4.90235
      H1    -7.64108   13.34530   -5.76781
       H    -8.85632   10.90788    0.02472
       O    -9.76226   11.26711    0.12574
      H1   -10.45135   10.56542    0.06469
       H   -13.02229   13.58678   -5.41949
       O   -13.49650   13.88538   -6.20678
      H1   -12.80444   14.15816   -6.86662
       H   -12.63654    9.31830   -5.88212
       O   -13.02485    8.73222   -6.57626
      H1   -13.81206    9.12499   -6.94012
       H   -10.25624   11.53116  -10.02394
       O   -11.07424   11.59062   -9.46873
      H1   -11.52926   12.43569   -9.73754
       H   -12.74207   16.89691   -3.62154
       O   -12.33023   17.62252   -3.13129
      H1   -11.40109   17.53558   -3.26071
       H   -14.90201   13.03287   -1.76951
       O   -14.02879   12.79710   -2.12150
      H1   -13.59867   12.69503   -1.27210
       H   -14.42388   11.13457   -2.64110
       O   -14.71272   10.26679   -2.99761
      H1   -15.49438   10.44112   -3.51226
       H   -10.07089   12.53888   -0.99878
       O   -10.50205   13.36811   -1.34193
      H1   -10.08035   13.58949   -2.20258
       H   -12.01605   11.96254   -4.44981
       O   -11.83913   12.87838   -4.13129
      H1   -12.14313   12.95331   -3.21196
       H   -14.21966    8.68620    0.27391
       O   -14.00937    9.50773   -0.19958
      H1   -14.69665    9.75800   -0.75596
       H   -13.84652   17.17086   -6.99016
       O   -13.55987   16.79132   -6.17111
      H1   -13.71989   15.84135   -6.27582
       H   -10.83070   11.76459   -7.87292
       O   -10.57149   11.95484   -6.93224
      H1   -10.93736   12.88232   -6.90120
       H   -11.90074   14.37138   -8.77873
       O   -11.65184   14.56490   -7.83569
      H1   -11.50950   15.50539   -7.64875
       H   -11.37048    8.16481   -7.41004
       O   -10.40270    8.26944   -7.23133
      H1   -10.35865    8.10715   -6.29938
       H    -7.75758   14.13821   -8.48812
       O    -7.97724   13.99997   -7.55290
      H1    -8.86317   13.69423   -7.54151
       H   -11.85407   13.26330   -0.31222
       O   -12.62432   13.11317    0.26210
      H1   -13.17593   13.92270    0.32857
       H   -15.49111   11.42280   -7.45540
       O   -15.63360   12.21866   -6.94794
      H1   -14.83214   12.67684   -6.74556
       H   -11.14603   10.62767   -5.81541
       O   -11.49693   10.21093   -5.03935
      H1   -10.70626   10.02032   -4.45448
       H    -8.09599    9.45717   -3.89428
       O    -8.32690   10.14409   -4.52272
      H1    -7.82616    9.90082   -5.36492
       H   -10.52400   13.70683   -4.27920
       O    -9.80819   14.41323   -4.28822
      H1    -8.99537   13.95411   -4.51675
       H   -12.85356    7.65651   -5.22489
       O   -12.68142    6.87877   -4.62924
      H1   -13.27057    6.85492   -3.84898

