78
frame 4 | Written by MDAnalysis XYZWriter (release 2.4.3)
       H    -5.37103   -2.91653  -11.18423
       O    -4.68425   -3.62565  -10.98737
      H1    -3.84976   -3.18710  -10.89303
       H    -7.73005   -8.36631  -16.92803
       O    -7.82941   -8.99844  -17.67381
      H1    -7.05981   -8.82734  -18.31824
       H    -6.70022  -10.24509  -10.81041
       O    -6.61860   -9.70696  -11.62568
      H1    -5.73273   -9.39809  -11.57051
       H    -3.32637   -2.07765  -17.28077
       O    -2.84670   -2.79398  -16.83456
      H1    -2.85589   -2.51937  -15.89520
       H    -0.15650   -6.66918  -10.81488
       O    -0.94958   -6.44404  -10.26762
      H1    -1.79686   -6.39940  -10.76052
       H    -6.66187   -9.75630  -15.49200
       O    -5.99430  -10.33697  -15.90598
      H1    -5.82628   -9.97957  -16.80748
       H    -2.75228   -1.13055  -15.00199
       O    -2.63729   -1.82669  -14.40430
      H1    -2.47231   -1.37247  -13.52749
       H    -3.67327   -9.45381  -12.45051
       O    -3.94194   -9.61034  -11.52844
      H1    -3.34068   -9.16043  -10.93746
       H    -5.82159  -11.87615  -13.95715
       O    -6.22318  -12.12507  -13.10343
      H1    -6.48439  -11.34490  -12.62015
       H    -7.42232   -2.91761  -11.48955
       O    -6.97043   -2.09558  -11.29205
      H1    -7.18155   -1.50668  -12.03804
       H    -7.64362   -9.12541  -13.23379
       O    -7.94966   -8.80049  -14.09295
      H1    -7.91596   -7.84968  -13.98531
       H    -7.26039   -8.21584  -10.29001
       O    -7.06604   -7.61868   -9.52630
      H1    -6.20174   -7.24209   -9.63080
       H    -3.19633   -6.41665  -17.11537
       O    -3.81199   -5.69812  -17.29784
      H1    -3.37071   -4.86208  -17.16632
       H    -6.83551   -6.04886  -16.85367
       O    -7.57101   -6.41264  -16.30826
      H1    -8.38956   -5.96258  -16.51791
       H    -3.40111  -10.46649  -17.24088
       O    -2.70152  -10.73993  -16.65629
      H1    -3.04602  -10.56625  -15.78230
       H    -1.72814   -7.23876  -14.16802
       O    -1.11986   -7.01465  -13.44204
      H1    -0.63338   -7.85764  -13.37089
       H    -3.78520   -8.57673  -14.33359
       O    -3.31750   -9.34574  -14.05252
      H1    -2.39671   -9.05116  -14.00504
       H    -4.39410   -5.89940   -9.38875
       O    -4.51258   -6.75209   -8.97780
      H1    -4.04170   -7.32511   -9.54647
       H    -3.73464   -5.34183  -11.30344
       O    -3.28780   -6.17648  -11.49426
      H1    -3.47373   -6.16096  -12.47687
       H    -4.10132   -6.03677  -15.21779
       O    -4.24258   -6.60750  -14.44711
      H1    -5.17578   -6.52147  -14.26864
       H    -8.94828   -3.95199  -12.64837
       O    -8.43936   -4.36171  -11.96103
      H1    -8.03987   -5.11204  -12.38300
       H    -6.21641   -3.01778  -14.38711
       O    -5.69465   -3.64861  -13.90458
      H1    -4.83989   -3.36529  -14.05230
       H    -5.19569   -6.20014  -18.60187
       O    -5.77316   -6.75191  -19.17737
      H1    -5.20870   -7.15454  -19.86197
       H    -6.31333   -5.29471  -13.75933
       O    -6.83782   -6.12820  -13.85908
      H1    -7.23892   -6.07809  -14.76079
       H    -1.77818   -8.77192  -16.48270
       O    -2.06311   -7.86911  -16.21603
      H1    -1.46535   -7.30016  -16.74705
       H     0.04491   -6.14395  -14.47540
       O     0.80446   -5.56017  -14.60027
      H1     1.23687   -5.66253  -15.42624

