78
frame 4 | Written by MDAnalysis XYZWriter (release 2.4.3)
       H   -17.16313   11.92693  -10.48012
       O   -16.99401   10.98856  -10.77422
      H1   -17.62990   10.46689  -10.25302
       H   -10.91928    7.34508   -4.29154
       O    -9.98228    7.40696   -4.60589
      H1    -9.56221    7.70663   -3.82743
       H    -9.44038    5.25232   -7.83487
       O    -9.62846    5.58163   -8.72625
      H1    -9.49516    4.83421   -9.33395
       H   -17.79988    4.10247  -10.77600
       O   -18.02929    3.54803  -11.50897
      H1   -18.27332    2.73352  -11.10492
       H   -13.71436    9.65432   -9.74331
       O   -12.85305    9.36751  -10.00119
      H1   -12.33899   10.20992  -10.03499
       H   -19.19831   10.10726   -8.90283
       O   -18.62849    9.48725   -9.33673
      H1   -19.17041    9.29964  -10.13998
       H   -12.63654    9.31830   -5.88212
       O   -13.02485    8.73222   -6.57626
      H1   -13.81206    9.12499   -6.94012
       H   -10.88919    5.90116  -11.73987
       O   -10.16028    6.21236  -12.28311
      H1    -9.59055    6.62071  -11.63808
       H   -11.60698    4.46251  -10.42710
       O   -11.99419    3.80788  -10.99220
      H1   -12.77543    4.19493  -11.36147
       H   -16.31059    7.36660  -12.50003
       O   -15.54544    7.21185  -11.92452
      H1   -14.99382    7.98654  -12.02466
       H   -17.03057    8.49748   -4.64792
       O   -17.57480    9.18402   -4.21303
      H1   -17.39723    9.16354   -3.22399
       H   -14.59132    6.94528   -8.15450
       O   -15.43303    7.34353   -8.35145
      H1   -15.79962    6.66203   -8.92318
       H   -12.92432    5.74578   -6.51244
       O   -13.24099    5.40922   -7.36956
      H1   -12.57768    5.62725   -8.05103
       H   -15.79253    3.46839   -7.14379
       O   -15.05163    3.11719   -7.60761
      H1   -14.35001    3.70426   -7.31371
       H   -12.07113    7.47417  -10.22299
       O   -11.77306    6.58791  -10.02225
      H1   -11.00063    6.68970   -9.48113
       H   -17.93220    7.26643   -6.66509
       O   -17.07957    7.40986   -6.15079
      H1   -16.41800    7.45682   -6.85787
       H   -16.28196    6.34496  -10.84560
       O   -16.69674    5.68870  -10.16729
      H1   -17.63485    5.99219  -10.13618
       H   -14.76733    5.52044  -11.80179
       O   -14.47305    4.77775  -12.39779
      H1   -14.81619    3.96585  -11.95475
       H   -11.37048    8.16481   -7.41004
       O   -10.40270    8.26944   -7.23133
      H1   -10.35865    8.10715   -6.29938
       H   -15.49111   11.42280   -7.45540
       O   -15.63360   12.21866   -6.94794
      H1   -14.83214   12.67684   -6.74556
       H   -17.30570    5.44121   -5.69715
       O   -17.39252    4.45312   -5.82442
      H1   -18.31572    4.20683   -5.67346
       H   -13.55317    9.41102  -11.89895
       O   -13.67525    8.79316  -12.68188
      H1   -14.29103    9.32176  -13.23401
       H   -19.22672    8.32039   -8.17688
       O   -19.44059    7.64511   -7.53880
      H1   -19.45919    6.92027   -8.14739
       H   -11.14603   10.62767   -5.81541
       O   -11.49693   10.21093   -5.03935
      H1   -10.70626   10.02032   -4.45448
       H   -12.85356    7.65651   -5.22489
       O   -12.68142    6.87877   -4.62924
      H1   -13.27057    6.85492   -3.84898
       H   -15.40857    9.00932   -8.70699
       O   -15.26819    9.93172   -8.81513
      H1   -15.72492   10.25787   -9.59709

