78
frame 4 | Written by MDAnalysis XYZWriter (release 2.4.3)
       H    -7.73005   -8.36631  -16.92803
       O    -7.82941   -8.99844  -17.67381
      H1    -7.05981   -8.82734  -18.31824
       H    -9.93896   -4.05802  -16.47019
       O   -10.27040   -4.93374  -16.58032
      H1   -10.71364   -4.88865  -17.45437
       H    -9.66712    0.78096  -17.35084
       O    -9.53187   -0.19040  -17.33939
      H1    -9.81094   -0.42920  -18.21262
       H   -10.40082   -4.46750  -19.80825
       O   -10.99791   -4.97970  -19.29319
      H1   -10.40304   -5.73482  -19.28982
       H   -10.32887   -8.30335  -19.13784
       O    -9.65215   -7.66335  -19.14259
      H1    -8.91206   -8.12926  -18.73851
       H   -13.57266   -2.20761  -12.70218
       O   -12.77010   -1.82560  -13.08212
      H1   -13.06598   -1.40348  -13.91590
       H   -11.71992   -7.52629  -15.10682
       O   -12.05554   -6.62904  -15.12710
      H1   -11.48343   -6.19853  -15.78469
       H    -8.48565   -2.62257  -17.66639
       O    -8.22904   -2.74247  -18.55991
      H1    -8.09288   -3.67752  -18.78749
       H   -12.90082   -9.45117  -17.51511
       O   -11.98686   -9.60359  -17.87658
      H1   -12.13824  -10.42124  -18.31445
       H    -7.64362   -9.12541  -13.23379
       O    -7.94966   -8.80049  -14.09295
      H1    -7.91596   -7.84968  -13.98531
       H   -11.51083   -3.22731  -13.62648
       O   -10.73183   -3.65837  -14.07344
      H1   -11.01339   -4.53746  -14.41583
       H   -15.46021   -3.59059  -18.68916
       O   -14.64669   -3.16904  -18.92281
      H1   -14.81984   -2.75998  -19.80636
       H    -9.29870   -1.61031  -15.99487
       O    -8.94700   -2.50942  -15.78292
      H1    -9.51188   -2.82389  -14.97422
       H    -6.83551   -6.04886  -16.85367
       O    -7.57101   -6.41264  -16.30826
      H1    -8.38956   -5.96258  -16.51791
       H   -14.67556   -5.22191  -15.88577
       O   -14.57687   -6.17743  -15.94003
      H1   -13.60044   -6.29798  -15.78491
       H   -13.80616   -7.69893  -12.55770
       O   -13.10410   -7.01142  -12.64823
      H1   -12.71932   -6.91678  -13.57123
       H   -10.34412    0.50580  -15.41708
       O   -10.84749    1.23423  -15.02749
      H1   -10.62827    1.25901  -14.08607
       H   -15.75423   -3.10162  -15.71784
       O   -14.94153   -3.51402  -15.40877
      H1   -15.18922   -3.55495  -14.49038
       H   -12.40808   -1.14238  -18.06942
       O   -13.27896   -0.79686  -17.97386
      H1   -13.78500   -1.61168  -17.91832
       H   -13.93004   -6.52322  -17.87746
       O   -13.77260   -6.32149  -18.76070
      H1   -13.83050   -5.36080  -18.78606
       H    -8.94828   -3.95199  -12.64837
       O    -8.43936   -4.36171  -11.96103
      H1    -8.03987   -5.11204  -12.38300
       H   -13.24324   -0.35487  -16.28420
       O   -13.10879   -0.21424  -15.34524
      H1   -12.31183    0.32449  -15.30735
       H    -6.21641   -3.01778  -14.38711
       O    -5.69465   -3.64861  -13.90458
      H1    -4.83989   -3.36529  -14.05230
       H    -5.19569   -6.20014  -18.60187
       O    -5.77316   -6.75191  -19.17737
      H1    -5.20870   -7.15454  -19.86197
       H    -6.31333   -5.29471  -13.75933
       O    -6.83782   -6.12820  -13.85908
      H1    -7.23892   -6.07809  -14.76079
       H   -11.73179   -9.60410  -16.24839
       O   -11.67756   -9.29769  -15.30437
      H1   -11.35120  -10.06694  -14.77414

