78
frame 4 | Written by MDAnalysis XYZWriter (release 2.4.3)
       H   -11.54034    7.53973  -17.65880
       O   -10.59984    7.23182  -17.65147
      H1   -10.22655    7.61277  -18.43254
       H   -14.01430   12.20533  -12.99953
       O   -14.24605   11.87966  -12.13975
      H1   -15.08336   12.33397  -12.02309
       H   -15.45362   14.18912  -13.80628
       O   -16.14114   14.81038  -13.55667
      H1   -16.28592   15.30583  -14.39077
       H   -19.56546   15.16022  -18.11464
       O   -19.39174   14.29431  -18.49479
      H1   -19.14742   13.70140  -17.75186
       H   -15.88260    6.48687  -16.56345
       O   -15.76661    5.52805  -16.58393
      H1   -14.87711    5.29544  -16.85472
       H   -12.84119    6.99445  -15.89838
       O   -13.12527    7.35894  -16.74792
      H1   -13.30560    8.32827  -16.53597
       H   -15.70428   17.35559  -18.95322
       O   -15.47645   17.41562  -17.99363
      H1   -15.89907   16.69419  -17.50574
       H   -14.22340   10.16860  -19.04596
       O   -14.99563    9.91586  -19.53514
      H1   -14.96174    8.97344  -19.55314
       H   -16.28709   10.43984  -18.41037
       O   -16.82590   10.36519  -17.61752
      H1   -16.72858    9.52128  -17.21171
       H   -17.08472   13.06714  -13.43019
       O   -17.11395   12.24573  -14.02321
      H1   -17.59321   11.48755  -13.59260
       H   -12.62228   13.80836  -14.02040
       O   -13.49110   13.49062  -14.19341
      H1   -13.38199   13.37956  -15.13656
       H   -19.50344    8.67328  -18.18286
       O   -19.32119    9.39505  -18.81514
      H1   -18.42974    9.70883  -18.56813
       H    -9.88510   10.76844  -15.41607
       O   -10.61871   10.11430  -15.56798
      H1   -10.54973    9.66946  -14.68512
       H   -13.21717   15.91701  -19.80152
       O   -13.39047   15.58992  -18.88567
      H1   -13.80482   16.34831  -18.42968
       H   -11.97737   11.73824  -19.03081
       O   -12.35933   12.67348  -19.00111
      H1   -12.27554   12.93613  -19.97696
       H   -17.80198    7.89021  -15.96526
       O   -16.82560    8.04022  -16.04363
      H1   -16.55621    8.39847  -15.23122
       H   -10.97625    9.90099  -18.19799
       O   -11.21650   10.17986  -19.09487
      H1   -11.19645    9.42176  -19.68543
       H   -14.53560   10.54093  -15.44663
       O   -15.14266   10.52640  -14.65254
      H1   -15.58561   11.40434  -14.63255
       H   -18.29883   12.66948  -15.43643
       O   -18.42653   12.82401  -16.39648
      H1   -18.21037   11.92747  -16.68350
       H   -18.84317    4.89150  -16.35152
       O   -18.58584    4.75358  -17.22392
      H1   -17.61263    4.82868  -17.25049
       H   -13.41585   12.84829  -17.83643
       O   -13.89053   12.84088  -17.00057
      H1   -14.60768   13.46746  -17.13649
       H   -13.37188   11.25396  -16.52662
       O   -13.09850   10.29849  -16.43108
      H1   -12.36517   10.26836  -15.82423
       H   -18.65861   10.62230  -12.06540
       O   -19.17511   10.16542  -12.74519
      H1   -20.16336   10.30437  -12.51899
       H   -13.55317    9.41102  -11.89895
       O   -13.67525    8.79316  -12.68188
      H1   -14.29103    9.32176  -13.23401
       H   -17.99717    6.14141  -13.51965
       O   -17.69774    7.03313  -13.31385
      H1   -18.37667    7.61490  -13.04657
       H   -16.42927   13.89018  -18.21670
       O   -16.22259   14.10464  -17.28240
      H1   -16.93064   13.64644  -16.88706

