78
frame 4 | Written by MDAnalysis XYZWriter (release 2.4.3)
       H     0.53002    3.95091    3.88330
       O     0.22475    4.85520    4.08836
      H1     0.62730    5.37765    3.41614
       H     2.94056    3.90438    8.70614
       O     3.31950    4.58223    9.25486
      H1     3.98192    4.17454    9.80359
       H     0.11205    5.23647    5.79968
       O    -0.03032    5.31933    6.77809
      H1     0.41957    6.13227    7.12543
       H     2.96320    7.21500    6.05092
       O     2.61058    6.96933    5.20629
      H1     2.94845    6.09447    5.08627
       H    -2.14852    4.57473   10.03147
       O    -2.69930    3.94013    9.45900
      H1    -3.59274    3.94647    9.80549
       H     0.66069    9.36707    5.75779
       O     0.72935    9.84856    6.64708
      H1     1.53014   10.39583    6.65432
       H     0.02122    6.02362    9.20726
       O    -0.62855    5.94480    9.98083
      H1    -0.52176    6.73577   10.56654
       H    -1.72248    5.73818    3.93671
       O    -2.10279    6.60370    3.73003
      H1    -2.73187    6.86019    4.33263
       H     6.55387    6.21424    7.55273
       O     5.77374    5.61277    7.46166
      H1     5.06358    6.24004    7.63453
       H    -1.62571    6.77182    8.73259
       O    -2.16838    6.99770    7.91562
      H1    -1.71933    6.61080    7.16331
       H    -1.36761    8.21898    2.93351
       O    -1.37055    8.70013    2.06989
      H1    -2.21768    9.19148    2.13701
       H    -3.43753    9.94457    9.12812
       O    -3.70754    9.05217    8.95722
      H1    -3.02322    8.59883    8.51075
       H     2.20166    5.09215   11.65746
       O     2.74126    5.78549   11.98119
      H1     2.16510    6.24226   12.72725
       H    -1.16476    2.71396    8.46874
       O    -0.65116    2.39531    7.68898
      H1    -0.24503    3.06970    7.23098
       H     2.97350    7.25884   11.18685
       O     3.18192    8.15745   10.87871
      H1     4.02905    8.25285   11.33917
       H     1.01156    2.36772    8.30880
       O     1.98522    2.28051    8.38690
      H1     2.14447    1.35818    8.73615
       H    -1.45931   10.39108    5.97802
       O    -1.92331   10.71441    5.17836
      H1    -2.79622   11.05282    5.48161
       H     2.00769    7.44755    8.07991
       O     1.04271    7.44235    8.01720
      H1     0.76604    8.32509    7.72347
       H     0.72663    8.80251    3.36905
       O     0.49835    8.52076    4.26132
      H1     1.17692    7.96652    4.63674
       H     3.70910    6.21091    8.67226
       O     3.75320    7.13889    8.37334
      H1     3.76106    7.68039    9.16352
       H    -0.93385    1.47567    6.29505
       O    -1.07959    0.73169    5.72097
      H1    -0.33924    0.78608    5.11026
       H    -4.84699    5.37317    4.65643
       O    -4.11593    4.97507    5.13529
      H1    -4.00490    4.10703    4.75131
       H     0.32379    7.66989   12.35591
       O    -0.01296    8.11111   11.56413
      H1    -0.84713    8.51016   11.82679
       H     3.43515    2.87487    5.89894
       O     3.39735    2.92110    4.92839
      H1     4.08245    3.54726    4.72700
       H     0.18767    4.80015   11.02492
       O     0.54829    4.11465   11.59943
      H1     0.37904    3.22324   11.29687
       H     3.97535    7.85847    4.34546
       O     4.64211    8.39146    3.81022
      H1     5.28449    7.75886    3.48951

