78
frame 3 | Written by MDAnalysis XYZWriter (release 2.4.3)
       H    17.13721    3.65633    5.85727
       O    17.50237    3.05717    6.58966
      H1    16.94765    3.16444    7.38238
       H    15.61054    5.38758   11.78819
       O    15.12509    6.24186   11.81351
      H1    14.32267    6.08144   12.28968
       H    18.09671    4.76972   10.61933
       O    17.50981    4.85837   11.36814
      H1    17.81898    4.08383   11.87335
       H    14.35224    3.21219    9.22666
       O    15.15153    3.67123    9.53225
      H1    15.15785    4.55639    9.15329
       H    17.99656    2.29014   12.97932
       O    18.64206    2.64665   12.38508
      H1    19.32801    2.96837   13.02332
       H    17.47154   11.26148   12.14254
       O    17.82987   11.51491   12.96174
      H1    18.29859   10.83346   13.38033
       H    18.49990    7.99003    8.08288
       O    18.43729    7.55467    7.20172
      H1    18.34086    8.30687    6.54580
       H    14.77563   10.05976    9.16773
       O    15.02203    9.47118    9.97154
      H1    14.79425    8.57985    9.61190
       H    14.74291    3.50236   13.63391
       O    14.55351    3.93606   14.46112
      H1    14.27674    3.23197   15.05158
       H    13.51860    7.70503   14.69655
       O    12.86183    8.14093   14.06031
      H1    12.74406    9.02112   14.49169
       H    14.06171   10.24945   11.80302
       O    13.36928   10.60867   12.35959
      H1    12.59462   10.06162   12.39285
       H    19.41022    2.89451    9.34063
       O    19.16155    3.67220    8.84972
      H1    18.59125    3.38622    8.11522
       H    18.25661    8.32184   17.49006
       O    17.40624    7.82986   17.69030
      H1    16.89988    8.50751   18.15374
       H    15.53572    6.99979    7.01608
       O    15.21605    7.33195    6.18257
      H1    14.31573    7.03511    6.02157
       H    17.10650   12.05665    8.70787
       O    16.70947   12.63305    8.06207
      H1    17.16622   12.66121    7.24104
       H    15.35276   10.97334   15.05321
       O    15.22447   10.11299   14.61217
      H1    14.65030   10.34094   13.87346
       H    18.65251    8.55415   13.98038
       O    19.22303    9.07583   13.40952
      H1    20.13888    8.75394   13.58071
       H    15.78040    3.11065   11.25017
       O    15.72488    2.49636   11.98501
      H1    16.34861    1.75988   11.82226
       H    18.46646    6.35087   11.79543
       O    19.00211    7.11057   11.56968
      H1    18.94832    7.82245   12.16773
       H    12.56649    6.55717   13.55335
       O    12.67862    5.65048   13.21920
      H1    13.29719    5.23378   13.82213
       H    17.99733   10.40101    9.91664
       O    17.27626   11.04705   10.19044
      H1    16.48497   10.50623   10.05639
       H    18.06809    5.00689   15.88059
       O    18.65213    5.72736   15.45029
      H1    18.01048    6.39372   15.06128
       H    16.37827    8.60184   14.33262
       O    16.89871    7.81758   14.07122
      H1    16.56424    7.53174   13.24214
       H    16.03771    3.81219   16.30652
       O    16.96358    3.66160   16.58114
      H1    16.81377    3.11802   17.39398
       H    13.82764    6.24787    8.76560
       O    14.73354    6.23177    9.07497
      H1    14.69465    6.23419   10.02838
       H    15.34895    7.02284   15.31036
       O    14.52713    7.07102   15.81413
      H1    14.54789    7.68399   16.53159

