78
frame 0 | Written by MDAnalysis XYZWriter (release 2.4.3)
       H     1.34685  -13.01208   -6.54004
       O     0.71632  -13.25997   -7.26869
      H1     0.44636  -14.14107   -7.13187
       H     9.73192   -9.49096  -10.76136
       O     9.11241   -8.81282  -10.85258
      H1     9.68093   -8.05459  -10.96281
       H     7.73431   -8.60206   -9.70137
       O     7.05881   -8.55430   -9.02330
      H1     6.37039   -7.96739   -9.40236
       H     2.79738  -11.57420   -5.52366
       O     1.88265  -11.41893   -5.73998
      H1     1.30007  -11.54141   -4.96879
       H     6.12169  -13.00086  -11.08241
       O     6.16217  -13.21154  -12.01816
      H1     7.07518  -13.39686  -12.24620
       H     4.77700  -13.83214   -4.33661
       O     4.11594  -13.55291   -5.05938
      H1     3.32443  -13.74697   -4.58388
       H     2.75284   -8.84425   -8.65698
       O     2.78687   -7.89867   -8.71570
      H1     2.22187   -7.60398   -9.41836
       H     5.13217   -6.16423  -10.25936
       O     4.99770   -7.08404  -10.15170
      H1     4.23508   -7.29027   -9.61665
       H     4.71188  -13.71760   -8.69506
       O     5.06034  -13.10630   -9.41982
      H1     5.31789  -12.23500   -9.06168
       H     6.55876  -14.18608   -8.99247
       O     7.26456  -14.50269   -8.38229
      H1     7.74572  -15.15776   -8.86177
       H    10.04795  -10.56172   -7.54372
       O    10.62511   -9.78135   -7.49018
      H1    11.42834   -9.92666   -8.00907
       H     5.15087  -10.43541   -5.69121
       O     4.60413  -11.16414   -6.16073
      H1     4.64304  -12.04039   -5.61969
       H     3.40652  -10.77487   -7.89914
       O     2.68854  -10.49062   -8.50328
      H1     1.82379  -10.62060   -8.06360
       H     4.04804   -7.86149   -5.81684
       O     3.85693   -7.13520   -5.26704
      H1     2.88285   -7.17310   -5.16658
       H     7.87174  -11.38705   -8.04243
       O     8.71828  -11.65966   -7.57299
      H1     9.12670  -12.18711   -8.24249
       H     1.86103   -7.64636   -7.29799
       O     1.45904   -7.61412   -6.43859
      H1     0.58070   -8.04107   -6.45882
       H     8.47118   -6.65930   -6.58142
       O     7.49132   -6.68194   -6.72388
      H1     7.33398   -7.24770   -7.47442
       H     2.96933  -11.88632  -11.86707
       O     2.19310  -11.99126  -11.27530
      H1     2.55261  -11.89449  -10.39691
       H     5.81415  -11.02313   -7.67579
       O     6.26086  -11.00560   -8.49798
      H1     6.36526  -10.08877   -8.73032
       H     4.97588  -15.90403   -9.18897
       O     4.69240  -15.58708   -8.31362
      H1     5.51860  -15.22259   -8.05386
       H     3.67810  -16.02658   -7.16212
       O     2.91422  -16.37842   -6.63491
      H1     2.60816  -15.75822   -5.97201
       H     3.98732  -11.34817   -2.95743
       O     3.67967  -11.42099   -2.04900
      H1     3.17271  -10.60175   -1.88733
       H     8.16223   -9.50249  -12.25507
       O     7.61332  -10.17477  -12.80247
      H1     7.36485  -10.81572  -12.12328
       H     6.65492   -8.41937   -5.62537
       O     6.20592   -9.16776   -5.19673
      H1     6.81602   -9.87810   -4.93983
       H     8.68861  -14.71714   -6.96534
       O     8.97355  -14.89076   -6.11193
      H1     9.90951  -15.00268   -6.17374
       H     8.17158  -11.65048   -5.78990
       O     7.77417  -11.53541   -4.89435
      H1     7.53936  -12.44614   -4.60398

