78
frame 3 | Written by MDAnalysis XYZWriter (release 2.4.3)
       H    11.24980    6.67031  -19.83725
       O    11.52899    6.12173  -19.12097
      H1    11.96048    5.36533  -19.52278
       H    13.66142    2.63928  -17.51418
       O    14.60465    2.82520  -17.55142
      H1    14.79754    2.79482  -18.49184
       H    14.71840   -1.82802  -16.64036
       O    14.61572   -0.86336  -16.76575
      H1    15.48396   -0.53361  -16.66716
       H    12.26919   -0.06274  -18.76742
       O    12.45366    0.29259  -17.92427
      H1    13.25521   -0.06738  -17.51538
       H     7.38938    0.28323  -18.65805
       O     6.56215    0.43881  -19.14924
      H1     5.96202    0.68563  -18.45179
       H     9.56379   -1.69075  -19.99302
       O    10.20129   -1.18513  -19.47693
      H1    10.72053   -1.83354  -18.98146
       H     9.85771   -0.14723  -17.78189
       O     9.45131    0.52083  -17.22156
      H1    10.00661    0.55245  -16.41142
       H    10.43164   -4.44053  -15.49943
       O    11.27024   -4.87354  -15.38098
      H1    10.99672   -5.67488  -14.92181
       H    17.47762    0.45574  -14.91143
       O    17.37735   -0.20219  -15.60505
      H1    17.31863    0.39598  -16.35481
       H     9.47102    3.71229  -15.40626
       O     9.97060    3.29806  -14.70458
      H1     9.58591    2.43991  -14.61126
       H    16.38206   -3.17674  -17.53683
       O    15.45683   -3.35021  -17.47116
      H1    15.30202   -4.27467  -17.33016
       H    12.69871   -0.84151  -14.34799
       O    11.99397   -0.29203  -14.79839
      H1    12.40467   -0.28052  -15.65912
       H     9.01261   -0.10532  -13.50798
       O     9.20183   -0.91398  -14.02951
      H1    10.15731   -0.81344  -14.20574
       H    15.04887    4.80949  -16.51649
       O    14.85482    5.75343  -16.53852
      H1    15.00625    5.90864  -17.43745
       H     6.54597   -0.51218  -16.04227
       O     6.43904   -1.46161  -16.15525
      H1     7.38913   -1.70851  -16.25121
       H    14.72282    1.44368  -13.61718
       O    14.28139    1.22202  -12.75463
      H1    13.39733    1.70485  -12.73324
       H    16.44913   -1.40248  -19.14817
       O    17.33633   -1.26354  -18.89118
      H1    17.82969   -1.90037  -19.42175
       H    14.14285    3.56535  -14.19566
       O    14.88940    3.16259  -14.64509
      H1    14.73473    3.03457  -15.57224
       H    11.87502    1.81808  -17.01509
       O    11.92375    2.58335  -16.46453
      H1    11.14402    2.79922  -15.90420
       H     8.90185   -2.45052  -15.26980
       O     8.76318   -3.23128  -15.86193
      H1     8.02281   -3.67748  -15.33844
       H    14.74545   -1.84141  -13.39906
       O    13.99211   -1.41435  -13.10198
      H1    14.10884   -0.50068  -12.76211
       H    14.20652   -2.94129  -18.75036
       O    14.12059   -2.37683  -19.58683
      H1    13.57607   -2.96436  -20.17036
       H    11.67153    0.91837  -13.52965
       O    11.49144    1.74459  -13.09264
      H1    11.23205    2.37883  -13.80386
       H    11.29639   -4.03214  -18.39617
       O    11.51459   -3.15129  -18.03819
      H1    11.61423   -3.33294  -17.08399
       H    18.01483    2.31542  -17.59248
       O    17.41881    2.31412  -16.81258
      H1    16.54867    2.48443  -17.21458
       H     8.16817   -3.16539  -17.72818
       O     7.97645   -3.75255  -18.47501
      H1     7.91553   -3.23455  -19.29214

