78
frame 5 | Written by MDAnalysis XYZWriter (release 2.4.3)
       H     2.66739    3.36671  -10.68993
       O     3.54163    3.02774  -10.92953
      H1     3.90118    2.46858  -10.24347
       H    -0.07275    8.46065   -5.00028
       O    -0.26829    8.38704   -5.96287
      H1    -1.18629    8.69697   -6.09451
       H    -1.62247    3.99215   -8.25431
       O    -2.09710    4.68310   -8.74684
      H1    -1.79345    4.38176   -9.58801
       H    -0.33439    2.80872   -6.23732
       O     0.27631    2.98384   -6.95742
      H1    -0.07970    2.47922   -7.73153
       H     4.04077    5.08920   -5.42027
       O     3.91715    5.89090   -5.95852
      H1     3.71200    5.63372   -6.87021
       H     1.37067    8.20074   -9.62377
       O     0.98485    7.94006  -10.44889
      H1     0.99939    6.95381  -10.42572
       H     4.28276    4.00503   -3.66507
       O     4.21042    3.59421   -4.54633
      H1     3.52736    2.96172   -4.40453
       H     4.27080    8.66701  -11.78398
       O     5.09994    8.29527  -11.36703
      H1     5.53529    9.22589  -11.27478
       H     4.96145    3.47036   -7.71925
       O     4.14060    3.06104   -8.13163
      H1     3.74348    2.69021   -7.33383
       H     0.40892    3.84597  -10.30666
       O    -0.13018    3.00059  -10.16017
      H1    -0.45528    2.72198  -11.08708
       H    -0.68202    5.93695   -8.15777
       O     0.20569    6.19601   -7.94463
      H1     0.01288    6.84038   -7.25702
       H     1.86934    4.23127   -3.24344
       O     1.87792    3.44584   -2.66931
      H1     2.41982    3.75455   -1.93267
       H     2.23715    5.60289  -10.55380
       O     1.42181    5.20874  -10.89235
      H1     1.55990    5.26454  -11.88034
       H     4.78675    5.55268  -12.79169
       O     5.04490    4.82225  -12.25983
      H1     4.35096    4.48189  -11.71696
       H    -0.21077   10.38618   -7.98692
       O    -0.65122   11.24199   -7.74399
      H1    -0.30286   11.81491   -8.46602
       H    -0.78164    8.12588   -8.98237
       O    -1.67721    8.30780   -9.24155
      H1    -2.10573    8.81021   -8.47654
       H     5.51664    4.88971   -6.40584
       O     6.15440    4.43336   -6.89456
      H1     6.55357    3.77134   -6.29253
       H     6.73097    5.78757   -8.03313
       O     6.94262    6.66177   -8.35688
      H1     6.15475    7.13970   -8.09966
       H     2.41348    1.04469   -6.27026
       O     2.11700    1.10997   -7.18566
      H1     1.52311    1.85354   -7.13583
       H     2.52023    5.94139   -4.67360
       O     1.80624    5.79504   -4.05848
      H1     1.03265    6.22404   -4.41443
       H     4.35206    8.17570   -9.34309
       O     4.44655    7.75488   -8.49118
      H1     3.78663    7.05793   -8.52811
       H     5.40724    7.92718   -5.83336
       O     6.15335    8.20259   -5.32399
      H1     5.83204    9.10820   -4.93086
       H    -1.96171    8.21327  -12.66704
       O    -1.05033    8.08337  -12.41842
      H1    -1.05221    8.05941  -11.49076
       H     2.26129    9.98214  -12.38226
       O     2.68791    9.12227  -12.34144
      H1     2.06621    8.58282  -11.83479
       H     1.20163    9.03652   -7.24527
       O     1.33761    9.38286   -8.12993
      H1     2.00349   10.08169   -7.94974
       H     3.01730    4.59619   -8.39044
       O     2.78733    5.53248   -8.42510
      H1     1.86120    5.57836   -8.13398

