78
frame 4 | Written by MDAnalysis XYZWriter (release 2.4.3)
       H   -11.36436   -6.99090   17.84625
       O   -12.30956   -7.02987   18.09750
      H1   -12.49517   -6.45931   18.85681
       H   -11.02651   -9.85321   17.46799
       O   -11.68936  -10.31193   17.93156
      H1   -12.25472   -9.59741   18.24825
       H    -6.80188   -8.11770   10.95912
       O    -7.69625   -8.03372   10.56266
      H1    -8.20260   -8.87547   10.63289
       H    -7.90192   -4.94860   18.35546
       O    -7.88506   -5.17612   19.28625
      H1    -7.13912   -5.76099   19.36123
       H   -13.54314  -11.27689   15.47123
       O   -12.94588  -11.74715   16.09038
      H1   -12.48445  -11.20031   16.72488
       H    -9.69292   -3.45927   16.44186
       O   -10.61528   -3.73950   16.38817
      H1   -10.72325   -4.66864   16.25763
       H    -9.30220   -8.37557   16.95229
       O    -9.47468   -9.23270   16.48341
      H1    -9.89624   -8.88666   15.70103
       H    -9.94951  -10.46242   10.99427
       O    -9.06639  -10.40494   10.61238
      H1    -9.23802  -10.60272    9.70206
       H   -12.28277  -10.21566   11.49087
       O   -11.47064  -10.67148   11.68399
      H1   -11.72482  -11.60015   11.96185
       H   -11.44379  -12.29541   14.99886
       O   -10.71913  -12.80061   14.67742
      H1   -10.62662  -12.55444   13.78612
       H    -6.62620   -8.29601   15.11847
       O    -6.84949   -7.40047   14.88318
      H1    -7.43908   -7.54291   14.10769
       H    -6.68328   -8.60369   18.32596
       O    -6.59973   -9.18503   19.08637
      H1    -6.91006  -10.06376   18.64944
       H   -13.03570   -7.49061   12.48656
       O   -13.72580   -7.54141   13.15177
      H1   -13.86540   -6.63527   13.34288
       H    -5.34033  -12.38900   13.16263
       O    -6.07943  -11.80684   13.02963
      H1    -6.17787  -11.34509   13.87103
       H    -9.54084  -12.70021   16.02415
       O    -9.15715  -13.07123   16.84409
      H1    -9.96097  -13.29565   17.29074
       H    -8.20847   -7.45651   12.03602
       O    -8.73869   -7.17738   12.77522
      H1    -8.84266   -6.24702   12.70712
       H    -6.21740  -10.64577   16.47965
       O    -6.43786   -9.87604   15.93753
      H1    -7.38385   -9.69405   16.09165
       H   -13.51044   -6.20949   16.93249
       O   -13.90743   -5.55907   16.39587
      H1   -14.79590   -5.67527   16.09830
       H    -4.72323   -8.72612   14.23643
       O    -4.07004   -8.99114   13.61416
      H1    -3.65794   -8.11808   13.42434
       H   -11.61525   -6.66565   13.54616
       O   -11.46109   -5.90273   12.98264
      H1   -12.25884   -5.31122   13.16425
       H   -10.01829   -8.25188   13.44127
       O   -10.70660   -8.69959   13.99579
      H1   -11.09513   -9.46798   13.50903
       H    -7.56390   -4.42459   15.98249
       O    -7.58744   -5.28123   16.43054
      H1    -7.36127   -5.94073   15.78255
       H    -9.35654   -6.63703   18.43347
       O    -9.51166   -6.67794   17.45499
      H1    -8.85188   -6.13911   17.03940
       H    -5.15554   -6.33187   15.04561
       O    -4.28590   -6.25799   15.52587
      H1    -4.35341   -6.75128   16.33654
       H    -7.80629  -12.12437   17.79170
       O    -7.06237  -11.75646   18.24957
      H1    -6.85914  -12.32395   19.01604
       H   -14.91719  -10.79784   13.83690
       O   -14.61180  -10.20034   14.56359
      H1   -13.99065   -9.52514   14.32098

