78
frame 5 | Written by MDAnalysis XYZWriter (release 2.4.3)
       H   -10.88766  -17.02975   -8.86127
       O   -10.26791  -16.71832   -9.53244
      H1    -9.65534  -17.45930   -9.60964
       H   -12.07755  -13.44814  -16.52413
       O   -12.42072  -12.57414  -16.71819
      H1   -12.72337  -12.18822  -15.92800
       H    -3.84458  -20.03980  -13.71656
       O    -4.10968  -19.09844  -13.84366
      H1    -4.65775  -18.98697  -13.06952
       H   -10.60829  -15.48679  -16.49122
       O   -11.18385  -15.03350  -15.86659
      H1   -10.59525  -14.54043  -15.32768
       H    -7.17959  -16.60754  -13.95399
       O    -7.48489  -16.95425  -13.13673
      H1    -6.76938  -17.58646  -12.89444
       H   -11.51811  -15.24524  -11.96036
       O   -11.11911  -14.52627  -11.42721
      H1   -10.49865  -14.94754  -10.81827
       H   -14.02902  -16.05718  -18.22459
       O   -14.12099  -16.91205  -18.63599
      H1   -14.07333  -16.80718  -19.58403
       H   -14.77922  -17.70289   -7.90229
       O   -14.23070  -18.50279   -7.78498
      H1   -14.06544  -18.77003   -8.69852
       H    -9.55501  -13.50301  -12.70531
       O    -8.68354  -13.03446  -12.53602
      H1    -7.97920  -13.67671  -12.20176
       H    -6.83014  -15.55290  -12.26030
       O    -6.84181  -14.73496  -11.72123
      H1    -6.05994  -14.27162  -11.97570
       H   -12.48352  -16.79985  -13.51969
       O   -11.64894  -16.29933  -13.46845
      H1   -11.42239  -15.92461  -14.32885
       H    -4.69227  -15.65746  -14.61777
       O    -5.62577  -15.77973  -14.64422
      H1    -6.02042  -15.07830  -15.15163
       H    -9.29095  -12.77443  -14.40065
       O    -9.98836  -12.74415  -15.07936
      H1    -9.52723  -12.63110  -15.92572
       H   -14.17288  -12.50339  -13.93280
       O   -13.51244  -13.16747  -13.59530
      H1   -12.95399  -12.67850  -12.97523
       H    -9.88044  -19.32974   -9.48665
       O    -9.07380  -19.22980   -8.90587
      H1    -8.53817  -20.02553   -9.14833
       H    -5.61444  -18.50764  -10.97821
       O    -6.02546  -18.79691  -11.91161
      H1    -6.66407  -19.48755  -11.62499
       H   -13.75046  -13.81839  -17.19732
       O   -14.61158  -14.34941  -17.22061
      H1   -14.88275  -14.35041  -16.29813
       H   -11.38631  -11.32357  -12.56137
       O   -11.82535  -11.77814  -11.77522
      H1   -11.44312  -12.66158  -11.44568
       H   -15.75989  -14.81516  -13.06646
       O   -15.32730  -15.08757  -13.84895
      H1   -14.60168  -14.41317  -13.86860
       H    -9.45435  -17.33608  -16.97437
       O    -9.27678  -16.39256  -17.16894
      H1    -8.31693  -16.15354  -17.09582
       H   -12.51985  -19.23501  -10.59458
       O   -13.45162  -19.03406  -10.48012
      H1   -13.53350  -18.37832  -11.17576
       H    -7.25110  -14.93261   -9.86399
       O    -7.85080  -14.86376   -9.08077
      H1    -8.73455  -15.26296   -9.27986
       H    -6.42114  -16.34812  -18.18586
       O    -6.48292  -15.88684  -17.38029
      H1    -5.94669  -16.35557  -16.68663
       H   -10.62116  -17.86873  -13.15945
       O    -9.81314  -18.36970  -13.03861
      H1    -9.21692  -17.67927  -12.72758
       H   -14.21549  -18.27238  -14.27439
       O   -14.16955  -17.68760  -13.48251
      H1   -14.34170  -16.77235  -13.82756
       H   -13.19607  -14.09720   -9.62755
       O   -14.06237  -13.92255   -9.32451
      H1   -14.07788  -14.41933   -8.49343

