78
frame 5 | Written by MDAnalysis XYZWriter (release 2.4.3)
       H    -3.97400   -3.64226   12.73109
       O    -3.95016   -2.74348   12.35056
      H1    -3.04769   -2.43882   12.45590
       H     3.90811   -1.91018   13.35433
       O     4.35804   -2.74951   13.47928
      H1     3.72832   -3.30118   13.94272
       H     0.06012   -1.63178   17.83051
       O     0.36352   -2.10781   17.08542
      H1     1.09205   -2.66309   17.33901
       H     1.52774   -7.35410   14.24193
       O     2.05648   -6.87160   14.86786
      H1     2.99378   -6.91542   14.55610
       H    -0.46733   -0.94208   13.29661
       O    -1.28874   -0.98203   12.72022
      H1    -1.64541   -0.11972   12.83089
       H    -0.08544   -8.54980   12.43223
       O     0.55362   -7.88178   12.67592
      H1     1.33824   -8.20358   12.15233
       H     5.29072   -3.02643   16.16337
       O     6.01889   -2.87467   15.54214
      H1     5.64731   -2.68003   14.63272
       H     0.11488   -3.24094    8.10875
       O    -0.59277   -2.57364    8.18691
      H1    -0.45297   -2.03586    7.43336
       H    -1.73025   -5.60820    8.86401
       O    -1.24859   -6.20579    9.53927
      H1    -1.47105   -5.70339   10.28306
       H     0.21413   -3.82326   14.46182
       O    -0.75328   -3.60630   14.28703
      H1    -0.79008   -2.68814   14.15353
       H    -2.34268   -5.62594   12.48871
       O    -1.47615   -5.25302   12.25375
      H1    -1.21821   -4.76867   13.09341
       H    -1.71152   -5.62357   15.58405
       O    -1.75177   -6.52380   15.20258
      H1    -1.50900   -6.52282   14.31244
       H     3.28121    0.65172   13.77079
       O     3.15351   -0.25767   14.15223
      H1     3.70082   -0.28718   14.99377
       H     3.45266   -5.55857   10.20587
       O     2.66489   -6.13793   10.06590
      H1     2.11702   -5.73874   10.70886
       H     1.35917   -0.35198   14.82072
       O     0.48520   -0.70931   14.68678
      H1     0.29664   -1.32348   15.41574
       H    -0.35061   -1.35695   11.02310
       O     0.35656   -1.01285   10.47096
      H1     0.12648   -1.21927    9.57562
       H     5.06245   -4.00537   12.03402
       O     5.20147   -4.97729   11.93795
      H1     6.14655   -5.23238   11.82878
       H     3.24154   -9.45555   10.81808
       O     2.35198   -8.99182   10.75942
      H1     2.50524   -8.18863   10.23066
       H     4.82910   -5.62610   13.39927
       O     4.70335   -6.22847   14.17628
      H1     4.84080   -7.09950   13.77596
       H     1.61392   -4.20433   13.05260
       O     1.95147   -4.31485   13.96601
      H1     1.98529   -5.30305   14.08145
       H    -2.00795   -3.83903   18.53045
       O    -1.66858   -4.10843   17.62843
      H1    -1.04366   -3.42519   17.41314
       H    -0.12209   -5.03667   17.69495
       O     0.66752   -5.49344   17.44892
      H1     0.39987   -5.77409   16.56309
       H     0.06992   -4.42702   11.46811
       O     0.93248   -4.04802   11.35236
      H1     0.75286   -3.11714   11.08905
       H     1.13215   -4.85702    6.91406
       O     1.40316   -4.38008    7.76933
      H1     1.42598   -5.04467    8.48124
       H     2.22587   -4.69109   17.06099
       O     2.88954   -4.05142   16.77770
      H1     2.74491   -3.84491   15.82593
       H     2.41856   -7.69956   16.44432
       O     2.49811   -8.39396   17.12221
      H1     2.68452   -7.83906   17.92745

