78
frame 4 | Written by MDAnalysis XYZWriter (release 2.4.3)
       H    16.38526  -11.49213   14.76877
       O    16.28388  -12.27962   15.37420
      H1    15.67708  -12.00868   16.05026
       H    10.14734   -4.02027   16.46319
       O    10.71020   -4.40909   17.18014
      H1    10.36801   -5.28313   17.26685
       H    12.78644  -14.20670   15.48616
       O    11.98745  -13.86407   15.97850
      H1    11.30474  -13.94080   15.28241
       H    12.39725  -11.03225   15.39545
       O    12.00377  -10.29551   14.88483
      H1    11.77825  -10.69417   14.03561
       H    14.47991  -12.62518   17.38703
       O    14.39039  -11.66564   17.18927
      H1    14.63135  -11.08357   17.91174
       H    11.72321   -7.72806   14.83560
       O    10.84797   -7.58507   15.21220
      H1    10.21946   -7.46994   14.43746
       H    12.59688   -4.24865   13.84453
       O    11.88635   -3.66237   13.48576
      H1    12.44284   -3.21659   12.84398
       H    11.12103  -10.00899   16.63910
       O    10.86118  -10.00031   17.54382
      H1    11.25398  -10.72785   17.98890
       H    12.06565   -9.03475   18.44692
       O    12.87410   -8.75510   18.86908
      H1    12.85964   -7.81882   19.02223
       H    10.84871  -12.83552   19.06579
       O    11.63420  -13.31982   18.82717
      H1    11.58225  -13.29427   17.86509
       H    14.28159   -8.12288   15.02774
       O    13.87425   -8.31139   14.17596
      H1    13.34159   -9.12855   14.31416
       H    13.37138   -5.53928   19.94548
       O    14.01644   -6.12346   19.43444
      H1    14.09419   -5.72136   18.53543
       H    19.56273  -11.77415   16.29484
       O    19.03138  -11.65605   17.09089
      H1    18.14330  -12.02378   16.91306
       H    11.72211  -11.56496   11.41765
       O    11.98846  -10.82285   12.03795
      H1    12.94664  -10.86058   12.15383
       H     8.66478   -7.13128   17.49694
       O     9.64255   -6.95524   17.63513
      H1    10.02885   -7.20068   16.76653
       H    17.02730   -7.84872   19.43894
       O    17.34975   -8.57642   18.93200
      H1    17.76506   -9.22388   19.51024
       H    15.61334   -8.38419   17.37138
       O    14.77411   -8.35980   16.86818
      H1    14.11824   -8.52143   17.52852
       H    15.24347   -7.17508   13.46252
       O    15.92438   -6.51244   13.24417
      H1    15.50495   -5.70096   13.50241
       H    15.36700  -14.08505   18.80604
       O    14.84909  -14.14773   17.95806
      H1    14.25935  -14.93973   18.04160
       H    11.89297   -3.04446   17.50144
       O    12.10429   -2.11181   17.72006
      H1    12.49460   -1.71185   16.83406
       H    15.48373   -3.66525   17.48476
       O    15.27785   -4.59817   17.28133
      H1    16.12317   -5.05905   17.04959
       H    17.95551   -9.96884   14.30421
       O    17.95223  -10.77744   13.74987
      H1    18.08585  -10.36565   12.89811
       H     7.84983   -9.13806   17.63679
       O     7.98082   -9.91215   17.04998
      H1     8.94189   -9.97940   17.01020
       H    17.60894   -6.50640   15.75290
       O    17.67682   -5.71587   16.33697
      H1    18.13623   -5.00494   15.80441
       H    18.59018   -7.60170   14.12475
       O    18.30291   -8.19703   14.85120
      H1    19.13557   -8.34915   15.28386
       H    14.66526   -4.58261   15.30787
       O    14.46699   -4.27770   14.42533
      H1    15.02601   -3.51416   14.23298

