78
frame 5 | Written by MDAnalysis XYZWriter (release 2.4.3)
       H     7.77043  -17.31738   17.14012
       O     8.65517  -16.97871   17.10829
      H1     8.60505  -16.02231   16.84969
       H     9.04739  -13.61428   13.41380
       O     9.34322  -14.29400   14.05047
      H1     8.63414  -14.41353   14.69669
       H     5.51655  -14.24447   19.90980
       O     6.10698  -14.93749   19.48011
      H1     6.19997  -14.56831   18.61316
       H     9.36414   -8.25698   13.76999
       O     9.84150   -7.49753   13.33984
      H1    10.10033   -7.89346   12.50419
       H    11.56715  -10.27765   16.92333
       O    10.94536  -10.13167   17.68476
      H1    10.97514  -10.97704   18.17842
       H    12.20386   -8.60145   18.35993
       O    13.05847   -8.25721   18.62619
      H1    13.08060   -7.30032   18.70143
       H    10.66151  -12.44188   19.59692
       O    11.09678  -12.67925   18.77892
      H1    10.55546  -13.36493   18.42944
       H     6.48029  -10.90320   19.20919
       O     6.16908  -10.22571   18.54928
      H1     6.93028   -9.82805   18.14510
       H     4.92933   -9.15825   14.65291
       O     5.47438   -8.95175   13.88165
      H1     5.02644   -9.18204   13.08525
       H     7.16610  -15.46808   15.51852
       O     7.57463  -14.67638   15.88753
      H1     6.82481  -14.08964   16.05331
       H     9.27999   -6.07177   16.04991
       O    10.00395   -6.15505   16.77174
      H1    10.65139   -6.64116   16.17871
       H     3.81359   -9.40189   16.66068
       O     4.36258   -9.99010   16.07290
      H1     5.06382  -10.29309   16.59681
       H     8.02317  -11.30242   13.52599
       O     8.03941  -12.07453   12.97821
      H1     7.14446  -12.35048   12.86297
       H     2.81342   -9.38133   19.85634
       O     1.93969   -9.61753   19.51262
      H1     2.17316   -9.93996   18.66241
       H     5.96883  -16.80837   18.74558
       O     6.18472  -17.65053   18.29167
      H1     5.91691  -18.39949   18.92841
       H     4.34898   -7.37000   19.87733
       O     4.26075   -6.72724   19.13479
      H1     4.77051   -7.06679   18.41025
       H     9.42822   -5.98833   19.90314
       O    10.22107   -6.51883   19.72277
      H1    10.27924   -6.32589   18.80300
       H     0.29898   -7.21927   18.21432
       O    -0.16666   -7.92012   18.70624
      H1     0.51146   -8.44656   19.14212
       H     3.43615  -13.18793   15.84522
       O     3.00629  -12.52908   16.36552
      H1     3.33264  -11.65488   16.17139
       H     8.30102   -7.94823   17.75990
       O     8.39690   -8.83949   17.40808
      H1     9.24275   -9.18455   17.56603
       H     5.61324  -11.85250   17.69589
       O     5.50072  -12.76640   17.35028
      H1     4.56388  -12.80524   17.07654
       H     8.34249   -9.20466   15.55908
       O     8.14968   -9.46473   14.63722
      H1     7.31563   -9.04516   14.41218
       H     3.61707  -15.40049   16.02718
       O     4.27809  -14.84132   15.60105
      H1     4.32567  -15.05934   14.64587
       H     6.71600   -5.92873   16.69115
       O     6.89540   -6.11979   17.63283
      H1     7.24599   -5.22553   17.86735
       H     2.41856   -7.69956   16.44432
       O     2.49811   -8.39396   17.12221
      H1     2.68452   -7.83906   17.92745
       H     1.35480  -13.36989   17.60615
       O     0.63460  -12.94973   18.15627
      H1     1.16707  -12.79423   18.96441

