78
frame 4 | Written by MDAnalysis XYZWriter (release 2.4.3)
       H    -5.37103   -2.91653  -11.18423
       O    -4.68425   -3.62565  -10.98737
      H1    -3.84976   -3.18710  -10.89303
       H    -4.62919   -3.00481   -7.40016
       O    -4.15290   -2.11715   -7.46832
      H1    -4.64652   -1.61078   -8.13533
       H    -0.70122   -2.59293   -4.45533
       O    -1.01926   -1.76577   -4.09312
      H1    -0.34382   -1.35321   -3.51358
       H    -4.35382   -1.33872   -6.06702
       O    -4.69801   -0.86736   -5.28637
      H1    -3.99786   -0.16420   -5.16511
       H    -2.69392   -5.79887   -6.59105
       O    -3.57908   -6.12105   -6.55430
      H1    -3.67383   -6.58006   -7.39289
       H    -1.15317    1.51126   -7.92510
       O    -0.35255    1.93859   -8.26433
      H1    -0.45710    1.96017   -9.22230
       H    -0.36147   -5.46746   -6.84209
       O    -0.91360   -5.04281   -6.16199
      H1    -0.45032   -5.17572   -5.30729
       H     0.81226   -3.93299  -10.95256
       O     0.80161   -3.86674  -10.03156
      H1    -0.10448   -4.30792   -9.86576
       H    -0.15650   -6.66918  -10.81488
       O    -0.94958   -6.44404  -10.26762
      H1    -1.79686   -6.39940  -10.76052
       H    -0.55161   -3.36265   -7.08592
       O    -0.24604   -2.60833   -7.51782
      H1     0.45196   -2.98611   -8.11341
       H    -7.83149   -4.13079   -4.23246
       O    -7.43135   -3.38693   -4.69750
      H1    -7.00176   -3.86656   -5.42261
       H    -6.82389    0.67908   -7.58694
       O    -6.70574   -0.23525   -7.23577
      H1    -6.06412   -0.20958   -6.49004
       H     2.27165   -2.63894   -5.58854
       O     1.51590   -2.15502   -5.32609
      H1     0.86408   -2.23449   -6.03939
       H    -1.50849    1.15766  -10.58331
       O    -1.13765    1.97970  -10.98708
      H1    -1.94096    2.48343  -10.94727
       H    -1.55690   -3.44730   -8.55794
       O    -2.45691   -3.61336   -8.94630
      H1    -3.02914   -3.08662   -8.38466
       H    -1.45529   -0.08733   -4.84372
       O    -2.06841    0.55649   -5.14810
      H1    -1.85397    1.31537   -4.58467
       H    -7.42232   -2.91761  -11.48955
       O    -6.97043   -2.09558  -11.29205
      H1    -7.18155   -1.50668  -12.03804
       H    -4.39410   -5.89940   -9.38875
       O    -4.51258   -6.75209   -8.97780
      H1    -4.04170   -7.32511   -9.54647
       H    -3.38129    0.43666  -12.30181
       O    -2.54500    0.00830  -12.46210
      H1    -2.19550   -0.20534  -11.55779
       H    -4.52134    0.91364  -10.47066
       O    -4.40711    1.73813  -11.07593
      H1    -5.24749    1.95620  -11.44576
       H    -2.25370   -0.45257   -9.09907
       O    -1.74444   -0.57757   -9.87902
      H1    -1.35779   -1.44952   -9.81949
       H    -3.73464   -5.34183  -11.30344
       O    -3.28780   -6.17648  -11.49426
      H1    -3.47373   -6.16096  -12.47687
       H    -5.77160   -0.18920   -8.95595
       O    -5.13265   -0.40173   -9.62239
      H1    -5.66151   -0.90660  -10.34039
       H     1.13608   -6.93806   -7.66762
       O     0.64618   -6.24124   -7.98004
      H1     0.22752   -6.62528   -8.73984
       H    -2.55786    0.48975   -6.92540
       O    -2.94642    0.67741   -7.75829
      H1    -3.55878    1.35626   -7.55097
       H    -4.81904   -4.85158   -6.74340
       O    -5.53766   -4.22645   -6.99398
      H1    -6.05530   -4.69818   -7.67574

