78
frame 4 | Written by MDAnalysis XYZWriter (release 2.4.3)
       H     8.70132  -12.65193    9.79467
       O     9.04460  -13.35266    9.21759
      H1     8.46368  -14.03236    9.52378
       H    12.59431   -6.14337   11.05321
       O    11.64314   -6.24644   10.89426
      H1    11.39930   -5.32500   10.96114
       H     6.03964   -9.85123    8.94703
       O     5.93779  -10.33195    9.79591
      H1     6.86513  -10.25541   10.11966
       H     9.30972   -9.24491    6.74154
       O     8.41966   -9.45631    6.32695
      H1     8.54681  -10.05664    5.52442
       H     8.89121  -11.15212   11.57628
       O     8.84443  -10.92201   10.63940
      H1     9.26396  -10.05822   10.47552
       H     7.77295   -5.93050    6.05453
       O     7.92330   -6.18000    6.97708
      H1     8.43322   -6.98474    6.83334
       H    15.18863   -6.53415   11.58860
       O    14.54290   -6.62366   10.85626
      H1    15.01898   -6.31771   10.08007
       H    12.39725  -11.03225   15.39545
       O    12.00377  -10.29551   14.88483
      H1    11.77825  -10.69417   14.03561
       H     6.35540  -12.16993   11.51072
       O     6.33690  -13.01934   11.97634
      H1     6.68261  -13.70785   11.39163
       H    13.44308  -13.70038    9.40477
       O    13.36432  -12.72579    9.24606
      H1    12.52790  -12.56748    8.66874
       H     8.48266   -8.18039   13.55431
       O     9.01245   -7.49165   13.11674
      H1     9.46951   -7.97469   12.44016
       H    11.72321   -7.72806   14.83560
       O    10.84797   -7.58507   15.21220
      H1    10.21946   -7.46994   14.43746
       H    14.42905   -8.70838    9.19602
       O    15.03014   -9.34777    8.82415
      H1    14.47241   -9.83619    8.17694
       H     7.26595   -4.21678    9.44359
       O     8.20396   -4.45935    9.32678
      H1     8.28275   -5.13201    8.68429
       H    14.28159   -8.12288   15.02774
       O    13.87425   -8.31139   14.17596
      H1    13.34159   -9.12855   14.31416
       H     8.31129   -6.17532   12.24131
       O     7.60582   -5.56347   11.83860
      H1     7.88209   -5.45276   10.90056
       H    11.72211  -11.56496   11.41765
       O    11.98846  -10.82285   12.03795
      H1    12.94664  -10.86058   12.15383
       H    10.95166   -9.37406   11.31191
       O    10.30279   -8.72240   10.96702
      H1    10.78359   -7.84644   10.91016
       H     8.68986  -11.15541   13.43852
       O     8.81580  -11.97693   12.97723
      H1     7.91662  -12.32830   12.88228
       H    12.55580   -7.09004    6.89687
       O    13.06287   -7.56683    6.26366
      H1    13.37281   -6.88570    5.63196
       H    15.51235  -11.25375   11.57793
       O    14.67073  -11.71118   11.80130
      H1    14.37168  -12.01931   10.89630
       H    11.36428   -5.64427    7.67749
       O    11.29491   -6.52003    8.16509
      H1    11.32519   -6.18517    9.11938
       H     7.89359   -9.65068   15.13161
       O     7.99038   -9.81655   14.16798
      H1     7.07084   -9.71850   13.81265
       H     9.81395   -4.03259    9.88768
       O    10.70105   -3.74087   10.19343
      H1    10.41947   -3.38593   11.00016
       H    10.43275  -12.01413    8.07935
       O    11.33488  -12.17174    7.72290
      H1    11.09365  -13.01014    7.31116
       H    11.28001   -8.81737    8.51159
       O    10.75434   -9.32341    7.86352
      H1    11.37843  -10.03438    7.69011

