78
frame 5 | Written by MDAnalysis XYZWriter (release 2.4.3)
       H   -16.04002   13.53170   11.64581
       O   -15.95402   12.61529   11.35846
      H1   -16.19391   12.64215   10.44383
       H    -8.84865   14.56953    6.05082
       O    -9.23651   15.38830    6.48645
      H1    -9.12661   16.06886    5.81571
       H   -17.03827   17.69009    5.77177
       O   -17.22970   18.65586    5.90938
      H1   -17.28360   18.66265    6.90892
       H   -18.21987   19.80536    8.76591
       O   -17.43370   19.26315    8.51651
      H1   -17.57050   18.57911    9.13744
       H   -10.78048   16.45498   11.35675
       O   -10.25829   15.70242   10.99311
      H1   -10.77650   14.94100   11.36542
       H   -13.85322   17.79257    9.05040
       O   -13.68392   18.33440    9.84408
      H1   -13.03070   17.92294   10.41037
       H   -17.61510   16.52534    9.86335
       O   -18.32485   17.16636   10.03812
      H1   -18.91182   16.93425    9.32763
       H   -15.35870   18.23935   16.94114
       O   -14.99882   18.25183   16.04258
      H1   -14.14995   18.76939   16.08377
       H   -15.65296   16.34392    6.34077
       O   -16.38588   16.26161    5.73109
      H1   -16.10401   16.40619    4.79341
       H   -11.63566   15.21624   14.08905
       O   -12.13651   16.07647   14.10760
      H1   -12.74570   15.94525   14.82394
       H   -11.87086   19.21010    6.57147
       O   -12.28788   19.86629    5.97803
      H1   -12.61086   19.44430    5.17336
       H   -13.54154   15.71812    7.55010
       O   -14.25154   16.30710    7.75023
      H1   -14.88042   15.92038    8.35606
       H   -12.24879   17.01221   12.80512
       O   -12.05016   17.59976   11.98193
      H1   -11.84991   18.43547   12.46023
       H   -12.81781   13.43117   12.14748
       O   -12.73186   14.13311   11.47074
      H1   -12.76354   13.63635   10.63701
       H    -8.90458   17.65869   15.99308
       O    -9.68989   17.22216   15.53668
      H1    -9.76788   17.67275   14.66566
       H   -10.52555   15.07874    9.42810
       O   -10.89313   14.90604    8.50679
      H1   -10.25910   15.14550    7.81793
       H   -11.39307   17.44231    7.48863
       O   -10.86481   18.22593    7.62788
      H1   -10.73566   18.28891    8.62577
       H    -7.74408   18.44400   13.07747
       O    -8.50015   19.08966   13.07762
      H1    -8.70957   19.13701   12.10232
       H   -14.39541   15.14515   11.70039
       O   -15.36170   15.29435   11.86125
      H1   -15.47645   16.14068   12.38795
       H   -17.99162   15.09570   13.64088
       O   -18.54082   15.52786   12.96065
      H1   -18.68076   16.52525   13.02277
       H    -9.02002   17.95189   10.07441
       O    -9.42615   18.74335   10.46934
      H1    -9.00482   19.42241    9.97101
       H   -16.27986   14.58725    9.08835
       O   -16.27502   15.49575    9.34717
      H1   -15.94379   15.63497   10.26095
       H   -12.44838   14.42773    4.84076
       O   -12.78356   15.28278    5.09614
      H1   -13.65524   14.95658    5.47177
       H   -18.73152   18.04759   11.77456
       O   -18.72001   18.13227   12.77503
      H1   -17.86350   18.52719   13.07732
       H   -13.03918   12.46485    8.34026
       O   -13.10654   13.29429    8.90709
      H1   -12.34836   13.85303    8.60071
       H   -17.26655   13.27925    8.49698
       O   -16.39802   12.87757    8.61154
      H1   -15.97451   13.17714    7.74728

