78
frame 5 | Written by MDAnalysis XYZWriter (release 2.4.3)
       H    -0.41081    3.90659   13.24734
       O    -0.86302    4.02999   14.06225
      H1    -0.65447    3.39120   14.75341
       H     0.06012   -1.63178   17.83051
       O     0.36352   -2.10781   17.08542
      H1     1.09205   -2.66309   17.33901
       H    -4.03509    3.83720   16.81017
       O    -3.32297    4.06801   17.44900
      H1    -2.87007    4.82667   16.95414
       H    -0.46733   -0.94208   13.29661
       O    -1.28874   -0.98203   12.72022
      H1    -1.64541   -0.11972   12.83089
       H     5.15951    3.93490   14.88989
       O     5.15652    2.99567   14.59934
      H1     4.44309    2.65492   15.12624
       H    -0.11203    0.85585   15.29963
       O    -0.12477    1.82979   15.52616
      H1    -0.54310    1.66626   16.35216
       H     0.21413   -3.82326   14.46182
       O    -0.75328   -3.60630   14.28703
      H1    -0.79008   -2.68814   14.15353
       H     3.28121    0.65172   13.77079
       O     3.15351   -0.25767   14.15223
      H1     3.70082   -0.28718   14.99377
       H     1.35917   -0.35198   14.82072
       O     0.48520   -0.70931   14.68678
      H1     0.29664   -1.32348   15.41574
       H     3.03966    2.08803   19.17031
       O     3.78715    1.63355   18.69890
      H1     4.43552    2.37545   18.54536
       H    -1.26280    0.46074   18.97661
       O    -1.18625   -0.49739   18.94024
      H1    -1.26837   -0.77602   19.86809
       H    -0.46268    6.24993   19.53589
       O    -0.29869    6.21101   18.58699
      H1     0.49291    6.80884   18.49629
       H    -4.95522    1.66789   16.83511
       O    -4.19657    1.09246   16.75385
      H1    -3.65523    1.30891   17.53668
       H    -1.62077    5.54764   15.46456
       O    -2.04191    5.95600   16.22824
      H1    -1.31474    6.11478   16.88526
       H     0.70763    5.70842   14.81872
       O     1.09554    6.54960   14.42822
      H1     1.35584    7.08647   15.11143
       H    -1.33029    3.16746   18.15922
       O    -0.88413    2.36383   18.37881
      H1    -0.19631    2.62175   19.05473
       H     1.31495    4.67025   17.42864
       O     1.84732    4.82182   16.63106
      H1     2.32469    4.01451   16.44567
       H     1.85308    2.13901   15.97287
       O     2.76156    2.31639   16.10902
      H1     2.96195    1.77891   16.93937
       H     2.88312    4.69445   12.32043
       O     3.21238    5.25964   12.97120
      H1     2.39306    5.39094   13.52198
       H    -2.00795   -3.83903   18.53045
       O    -1.66858   -4.10843   17.62843
      H1    -1.04366   -3.42519   17.41314
       H    -6.03096   -1.38577   15.38762
       O    -5.79879   -1.11710   16.28254
      H1    -5.40619   -0.20178   16.31866
       H    -3.58635   -2.86209   17.39191
       O    -4.43362   -2.82298   17.83766
      H1    -4.95284   -2.12086   17.37779
       H    -2.36360    2.22232   13.60635
       O    -2.80210    1.38401   13.80555
      H1    -2.86942    1.40290   14.72164
       H     3.87394    2.61202   13.35238
       O     3.57118    1.88759   12.79763
      H1     3.13422    2.28044   12.02719
       H    -4.39658    1.98806   13.05040
       O    -5.09294    2.26103   12.52817
      H1    -5.89633    2.04457   13.08540
       H     0.37589    4.45406   11.11205
       O     0.73500    3.87249   11.85306
      H1     0.85659    3.00389   11.40343

