78
frame 6 | Written by MDAnalysis XYZWriter (release 2.4.3)
       H   -18.14806  -13.43422  -10.78691
       O   -17.31689  -13.17495  -11.24633
      H1   -17.01490  -12.32236  -10.82802
       H   -10.88871  -15.88552  -12.47024
       O   -10.87265  -15.45779  -11.60764
      H1   -10.16279  -15.92446  -11.17948
       H   -12.54074  -19.36096   -8.58749
       O   -12.71486  -18.61439   -7.94568
      H1   -12.97872  -17.85486   -8.50059
       H   -14.15566  -10.65707  -13.09752
       O   -13.63617   -9.83664  -13.03966
      H1   -14.19787   -9.09781  -13.33915
       H   -12.35441  -16.88818  -14.06413
       O   -11.42509  -16.64000  -14.26871
      H1   -11.48436  -16.06860  -15.05680
       H   -17.57893  -15.63182   -8.18019
       O   -17.03464  -16.34566   -8.52307
      H1   -16.77150  -16.11225   -9.42239
       H   -18.32476  -13.96602  -16.41618
       O   -19.11769  -14.38750  -16.81775
      H1   -18.90314  -15.28566  -16.52305
       H   -16.44710  -11.12720   -8.86044
       O   -16.56927  -11.02915   -9.84918
      H1   -15.93850  -10.33401  -10.02332
       H   -14.10315  -12.95831  -14.81776
       O   -14.06390  -13.60443  -14.06238
      H1   -13.19043  -13.49111  -13.65235
       H   -16.87748  -18.96000   -7.44085
       O   -16.16003  -18.86283   -8.10954
      H1   -16.32623  -17.97480   -8.42717
       H   -17.95493  -17.47008   -7.23625
       O   -18.41329  -18.13660   -6.70965
      H1   -18.95123  -17.65206   -6.07024
       H   -11.12822  -12.60771  -12.93176
       O   -11.53353  -12.97100  -12.16051
      H1   -11.34262  -13.91238  -12.05793
       H   -15.80253  -15.90799  -13.11654
       O   -15.67419  -15.75828  -14.03722
      H1   -15.03152  -15.02632  -14.04990
       H   -19.57583  -15.10176   -7.39592
       O   -18.91883  -14.44263   -7.16329
      H1   -18.67676  -14.65443   -6.23416
       H   -19.00476  -12.00702  -13.59102
       O   -18.62372  -11.39764  -12.93390
      H1   -18.03330  -12.03103  -12.41005
       H   -13.70601  -19.67153  -11.52124
       O   -14.47593  -19.39845  -12.06604
      H1   -14.20359  -18.72089  -12.70465
       H   -17.88478  -17.95292  -10.96909
       O   -17.42527  -18.26731  -11.77362
      H1   -16.51350  -18.49191  -11.54257
       H   -13.81342  -13.47383   -6.54065
       O   -13.29292  -14.23137   -6.19003
      H1   -12.32894  -14.00386   -6.42991
       H   -17.77875  -10.13422  -14.13920
       O   -17.41423   -9.64493  -14.93303
      H1   -17.76321   -8.76331  -14.99765
       H   -14.36121  -12.61677   -8.45601
       O   -14.38839  -12.07390   -7.61052
      H1   -15.34358  -12.06847   -7.54421
       H   -18.58886  -17.32788  -14.94982
       O   -18.09373  -16.65197  -15.42918
      H1   -17.32062  -16.41777  -14.91349
       H   -14.26876  -18.52258  -14.75060
       O   -14.01026  -17.82125  -14.16708
      H1   -14.63645  -17.05844  -14.30936
       H   -15.21990  -15.74174  -10.67749
       O   -16.15477  -15.75254  -10.99755
      H1   -16.46202  -14.76005  -11.01368
       H   -13.48125  -13.07873  -10.75984
       O   -13.80932  -13.35810   -9.95272
      H1   -13.45071  -14.17414   -9.54372
       H   -17.91508  -11.90612   -7.56306
       O   -17.12151  -11.62217   -7.10962
      H1   -17.17957  -10.62922   -7.11350
       H   -15.14064  -15.76155   -8.46180
       O   -14.22814  -15.75040   -8.57327
      H1   -13.81418  -15.48717   -7.70069

