78
frame 5 | Written by MDAnalysis XYZWriter (release 2.4.3)
       H    17.59816  -12.31484   -5.43548
       O    16.65674  -12.11775   -5.42254
      H1    16.67436  -11.13648   -5.44563
       H    18.60440   -9.56777   -7.55016
       O    18.18919  -10.20227   -6.92230
      H1    18.04941   -9.67510   -6.15390
       H    10.86671   -7.14072  -10.51920
       O    11.35841   -6.78855   -9.77632
      H1    11.96832   -7.50564   -9.56814
       H    16.30055   -4.96900   -3.77055
       O    17.21103   -5.03038   -3.35580
      H1    16.93881   -5.11243   -2.44435
       H    14.05666   -2.70505   -2.76987
       O    14.15849   -3.36814   -2.06407
      H1    13.67204   -4.13556   -2.44462
       H    14.19518   -9.40588   -1.52178
       O    14.88089   -9.26580   -2.19827
      H1    15.46220   -8.56745   -1.93783
       H    12.15273  -11.28958   -4.14253
       O    11.63817  -10.51139   -4.17888
      H1    11.10486  -10.70029   -4.94758
       H     9.33701   -6.80965   -4.68834
       O    10.20319   -7.21990   -4.66328
      H1    10.27382   -7.52080   -5.56047
       H    12.36094   -8.72243   -4.12781
       O    13.03179   -8.10344   -3.87651
      H1    13.60971   -8.64316   -3.31452
       H    13.31307   -9.36712   -8.82120
       O    13.24012   -8.38113   -8.75535
      H1    13.83803   -8.18388   -7.99733
       H    14.09675   -4.54919   -5.44392
       O    14.63789   -5.07188   -4.87078
      H1    14.02086   -5.57837   -4.32068
       H    13.99926   -7.94710   -5.63921
       O    14.63901   -7.78553   -6.34568
      H1    14.83054   -6.84318   -6.19015
       H    18.05890   -4.93617   -7.62684
       O    18.75776   -5.56574   -7.83991
      H1    19.05970   -6.07885   -7.05415
       H    12.37458   -4.43290   -8.65122
       O    13.28405   -4.15907   -8.58087
      H1    13.44405   -3.82584   -7.70030
       H    12.31855   -3.15306   -6.14934
       O    13.21392   -2.79316   -6.21230
      H1    13.11446   -2.06881   -6.85889
       H    19.11698   -7.59437   -2.65775
       O    18.51164   -7.42834   -3.32893
      H1    18.06668   -6.56432   -3.14200
       H    15.73833   -8.29398  -10.44129
       O    14.93654   -7.85333  -10.67318
      H1    14.37175   -7.91425   -9.87271
       H    11.49548   -6.05005   -3.36216
       O    11.74144   -5.11940   -3.59308
      H1    11.24539   -4.88490   -4.36770
       H    18.14546   -7.00354   -8.65228
       O    17.95604   -7.87196   -9.14064
      H1    18.41281   -7.70274   -9.97373
       H    13.07677   -0.83404   -3.87909
       O    13.87680   -1.38331   -4.02330
      H1    13.62780   -1.92392   -4.78878
       H    16.32786  -10.68415   -8.17888
       O    15.61909  -11.06803   -8.78342
      H1    15.90498  -10.68067   -9.66311
       H    16.25943   -8.91245   -4.93702
       O    16.92833   -9.42588   -4.53513
      H1    17.39163   -8.76677   -3.97590
       H    10.67835   -7.47971   -8.30439
       O    10.21029   -8.08057   -7.65445
      H1     9.91244   -8.91025   -8.09653
       H     9.81935   -3.75852   -5.99114
       O    10.63743   -4.32812   -6.06038
      H1    10.40414   -5.28182   -5.95505
       H    16.95282   -3.32925   -6.62267
       O    16.86134   -3.56216   -7.60139
      H1    16.21403   -4.33815   -7.63152
       H    15.74672   -6.42209   -9.69844
       O    15.65586   -5.62942   -9.16328
      H1    14.70779   -5.36898   -9.22438

