78
frame 5 | Written by MDAnalysis XYZWriter (release 2.4.3)
       H    -1.87399   12.85316    3.16990
       O    -1.99396   13.74134    2.83491
      H1    -2.81491   13.75671    2.33586
       H    -4.75363   18.46550    5.01937
       O    -5.62811   18.10031    4.80340
      H1    -5.54569   17.70456    3.92454
       H    -8.84865   14.56953    6.05082
       O    -9.23651   15.38830    6.48645
      H1    -9.12661   16.06886    5.81571
       H    -5.57128   13.02261    8.65026
       O    -5.36633   13.83656    9.14454
      H1    -6.24102   14.24169    9.32433
       H    -9.77158   17.67479    4.21045
       O    -8.98267   17.75072    4.71488
      H1    -8.22429   17.48050    4.10408
       H    -2.51113   16.36984    8.56986
       O    -1.58013   16.53399    8.18814
      H1    -1.49010   15.81357    7.51729
       H    -7.36620   18.65510    6.64768
       O    -7.33754   18.02410    7.42651
      H1    -7.98803   17.36185    7.11932
       H    -5.28591   14.16652    1.93446
       O    -4.58557   14.59953    1.43572
      H1    -4.79562   15.54270    1.28538
       H    -5.74372   12.83369    3.79942
       O    -5.94667   12.76742    2.85505
      H1    -6.87180   12.51939    2.81199
       H   -10.52555   15.07874    9.42810
       O   -10.89313   14.90604    8.50679
      H1   -10.25910   15.14550    7.81793
       H    -1.29835   14.81197    5.42256
       O    -0.68218   14.63690    6.17957
      H1     0.03812   14.11621    5.77153
       H    -9.78904   14.00192    3.48456
       O    -9.32227   14.69354    3.05785
      H1    -9.58116   14.69468    2.12172
       H    -5.07138   20.07300   10.81515
       O    -5.82388   19.45341   10.94689
      H1    -5.58452   18.83319   10.20371
       H    -4.22475   15.26344    9.67507
       O    -3.60438   15.99079    9.81485
      H1    -4.00074   16.78862    9.38482
       H    -6.51800   17.07328    1.95956
       O    -5.50642   17.26532    2.14289
      H1    -5.33902   18.04393    1.63961
       H    -9.02002   17.95189   10.07441
       O    -9.42615   18.74335   10.46934
      H1    -9.00482   19.42241    9.97101
       H    -2.50513   11.02000    6.15000
       O    -3.04362   11.24023    5.40008
      H1    -3.75962   11.90389    5.58933
       H    -0.73514   18.11195    5.81785
       O    -1.16632   18.59879    6.48478
      H1    -1.43263   17.82375    7.03291
       H    -5.45111   12.58710   10.30292
       O    -5.23759   11.82318   10.78739
      H1    -5.93358   11.15850   10.68379
       H    -4.18044   18.96837    8.69280
       O    -4.66066   18.13467    8.56923
      H1    -5.35626   18.31979    7.97205
       H    -7.37948   14.71483   10.67717
       O    -7.54592   15.05341    9.79333
      H1    -8.33870   14.62771    9.53495
       H    -9.80661   12.73660    7.76381
       O    -9.23555   12.54992    7.01081
      H1    -9.42687   11.60274    6.88055
       H    -5.95799   16.76019    6.48302
       O    -5.56835   15.90410    6.46728
      H1    -5.60100   15.50414    7.36626
       H    -5.65865   10.69095    8.02172
       O    -6.08157   11.53071    7.70524
      H1    -7.01344   11.51464    7.79523
       H    -4.08032   15.71470    5.39491
       O    -3.34840   15.07381    5.24198
      H1    -3.18321   15.11707    4.32985
       H    -4.89291   13.70963    5.69033
       O    -5.29008   12.84010    5.44815
      H1    -5.53320   12.38316    6.27348

