78
frame 6 | Written by MDAnalysis XYZWriter (release 2.4.3)
       H   -11.03955  -16.45863   -4.01212
       O   -10.47248  -16.45725   -4.80729
      H1    -9.85594  -17.12993   -4.54695
       H   -15.83075  -12.65863   -0.08655
       O   -16.26523  -12.74381   -0.92901
      H1   -16.77063  -13.52977   -0.78224
       H   -10.61846  -14.76529   -7.76549
       O   -10.59458  -13.77671   -7.63289
      H1    -9.92367  -13.67127   -6.96188
       H    -9.97925  -14.38047    4.21352
       O    -9.85256  -13.53768    3.75368
      H1    -9.29863  -13.64039    3.00557
       H    -9.89574  -13.35558   -1.07391
       O    -9.20858  -12.75992   -1.20423
      H1    -9.67428  -11.89810   -1.45663
       H   -10.16107  -18.74140   -1.82051
       O    -9.73844  -18.55944   -2.69611
      H1   -10.19804  -19.04643   -3.43228
       H   -12.44921  -11.81468    4.14146
       O   -12.26659  -12.02697    3.23100
      H1   -11.39380  -12.50512    3.23661
       H   -14.98993  -13.94967    1.81514
       O   -14.42693  -13.21922    1.38155
      H1   -13.64089  -13.12479    1.92124
       H   -12.15204  -16.09846    1.85706
       O   -11.48819  -16.57198    1.36344
      H1   -11.19215  -15.98464    0.67057
       H   -10.15683  -10.32638   -6.63621
       O   -10.20489  -10.15569   -5.69907
      H1   -10.91169  -10.69330   -5.35571
       H    -9.55161  -14.54518   -4.99106
       O    -9.62258  -13.57300   -5.00366
      H1   -10.45587  -13.42157   -4.61638
       H   -13.59848   -9.21259    2.82917
       O   -14.10130  -10.00262    2.74006
      H1   -13.39855  -10.64701    2.51736
       H   -13.47875  -10.29702   -4.83094
       O   -12.91517  -11.03090   -4.44024
      H1   -13.56766  -11.60920   -4.09003
       H    -7.69575  -12.65010   -2.42831
       O    -6.81095  -12.31024   -2.63542
      H1    -6.23305  -13.04103   -2.41308
       H   -15.76122  -12.11524   -3.67606
       O   -14.94610  -12.69552   -3.49601
      H1   -15.06914  -12.91369   -2.56313
       H    -6.95136  -16.09451    0.35904
       O    -6.67609  -15.42010    0.94438
      H1    -7.36370  -14.73116    0.94759
       H    -7.90980  -12.44000    1.64164
       O    -8.42162  -13.21378    1.41247
      H1    -8.74769  -12.90048    0.58495
       H   -13.81342  -13.47383   -6.54065
       O   -13.29292  -14.23137   -6.19003
      H1   -12.32894  -14.00386   -6.42991
       H   -11.94404  -13.74121   -1.81829
       O   -11.69901  -14.23055   -1.03305
      H1   -12.44422  -14.14414   -0.49150
       H    -8.01702  -17.70669   -1.77201
       O    -7.29414  -17.11489   -1.51676
      H1    -7.15970  -16.51073   -2.21405
       H   -12.57510  -17.41456   -2.20539
       O   -12.61613  -16.82837   -2.99148
      H1   -12.98032  -17.37002   -3.72316
       H   -14.08900  -15.80480    3.05664
       O   -13.21387  -15.39021    3.26902
      H1   -13.42055  -14.95013    4.09400
       H   -15.54386  -13.99540   -4.72335
       O   -16.01071  -14.78628   -5.00350
      H1   -15.40816  -15.54120   -4.90413
       H   -10.36390   -9.56255   -2.62114
       O   -10.98355  -10.08351   -2.09491
      H1   -11.80421  -10.13117   -2.63729
       H   -12.90200  -14.08425   -4.31924
       O   -12.14901  -13.97857   -3.68894
      H1   -12.26391  -14.77794   -3.16809
       H   -12.88398  -17.64716    0.31454
       O   -13.14304  -18.23749   -0.39530
      H1   -14.08874  -18.23415   -0.44992

