78
frame 5 | Written by MDAnalysis XYZWriter (release 2.4.3)
       H   -19.14563    1.19182   -4.13776
       O   -18.31628    1.65373   -4.24226
      H1   -17.72422    0.99088   -3.92811
       H   -19.75381    0.71975   -9.33734
       O   -19.15761    1.28699   -8.85483
      H1   -18.70802    0.67686   -8.25428
       H   -16.57993   -4.87828   -2.20340
       O   -17.12123   -4.43036   -1.55740
      H1   -17.82665   -3.99924   -2.08804
       H   -17.61661   -2.84183  -11.64874
       O   -17.22362   -2.84538  -12.56068
      H1   -17.16815   -3.81005  -12.74047
       H   -17.29156   -4.77960   -6.47059
       O   -17.48781   -5.01305   -5.58184
      H1   -18.33939   -4.64962   -5.38203
       H   -17.32396    4.03076   -9.83478
       O   -17.38146    3.23516  -10.32731
      H1   -17.81285    2.69387   -9.66761
       H   -14.80114   -5.08524   -4.18070
       O   -15.54740   -4.45699   -3.98693
      H1   -16.28433   -4.70442   -4.63816
       H   -19.65993   -3.69493  -10.51678
       O   -18.70716   -3.53240  -10.53583
      H1   -18.32110   -3.69830   -9.65573
       H   -15.04564   -1.17938   -8.78203
       O   -14.90887   -2.02075   -9.28647
      H1   -14.77277   -1.71175  -10.18807
       H   -15.71915   -2.58483   -5.00539
       O   -15.82048   -1.71184   -5.34290
      H1   -14.96081   -1.48508   -5.73447
       H   -16.72727   -4.76077   -9.12088
       O   -16.89820   -4.09304   -8.43791
      H1   -16.21774   -3.42147   -8.63335
       H   -20.13365   -4.39255   -3.38934
       O   -19.20918   -4.03784   -3.32169
      H1   -19.22442   -3.34254   -3.98099
       H   -17.38851   -7.08218   -8.80270
       O   -17.48455   -7.67861   -8.01492
      H1   -18.32228   -7.40787   -7.60689
       H   -18.86330   -1.87859   -6.38732
       O   -18.54351   -2.00553   -5.47221
      H1   -17.60268   -1.83319   -5.65729
       H   -12.93153   -1.53740   -5.30840
       O   -13.11597   -1.29279   -6.22236
      H1   -13.10373   -0.31566   -6.13670
       H   -20.08667   -1.35672  -12.49823
       O   -19.78913   -1.68487  -13.32469
      H1   -18.88025   -1.84833  -13.11562
       H   -17.23397    1.22641   -5.68176
       O   -17.35589    0.71227   -6.55252
      H1   -16.55766    0.82468   -7.05153
       H   -15.05716    0.97597   -9.26817
       O   -15.17239    0.52037   -8.38577
      H1   -14.25431    0.53321   -8.00712
       H   -11.68641   -2.85981   -8.01448
       O   -12.04320   -2.64803   -8.89914
      H1   -12.99179   -2.44461   -8.71585
       H   -17.39962   -6.36059  -10.75052
       O   -16.65907   -6.36979  -10.16445
      H1   -15.83520   -6.23729  -10.65939
       H   -19.50882   -1.12732   -1.92303
       O   -19.34535   -1.69681   -1.19384
      H1   -18.44876   -1.45217   -0.92446
       H   -13.54382    0.17711   -1.63023
       O   -14.46064   -0.01289   -1.38732
      H1   -14.96228    0.35526   -2.18738
       H   -19.72225   -7.12382   -5.12242
       O   -19.30192   -7.24534   -5.96602
      H1   -18.45709   -6.83328   -5.84149
       H   -17.20009    5.46865   -4.56457
       O   -17.14903    4.58810   -4.18958
      H1   -17.80324    3.99214   -4.59735
       H   -15.48114    1.28290   -3.58707
       O   -16.02099    0.48889   -3.53445
      H1   -15.72859   -0.06063   -4.31364
       H   -15.78277   -3.21403   -1.17783
       O   -14.91672   -2.80337   -1.12750
      H1   -14.89165   -1.92122   -1.54147

