78
frame 6 | Written by MDAnalysis XYZWriter (release 2.4.3)
       H     4.56055   -7.10963    3.46566
       O     4.84929   -7.31496    2.59576
      H1     4.01696   -7.28229    2.15340
       H     0.15882   -7.66205    2.13399
       O     0.32264   -8.08557    1.26989
      H1     0.78397   -8.88656    1.62178
       H     9.70681  -12.70705   -0.31161
       O     9.02716  -12.57158   -1.02985
      H1     8.62776  -11.69754   -0.93331
       H     5.23953   -2.28898   -3.16075
       O     5.28825   -2.86798   -4.00389
      H1     5.37084   -3.85805   -3.82475
       H     0.39923   -7.76830   -3.16755
       O     0.85497   -6.95086   -3.40464
      H1     1.69495   -7.08225   -3.84659
       H     6.83027   -2.09924    0.24279
       O     6.24829   -2.60671    0.78447
      H1     5.47776   -2.83636    0.22519
       H     6.90717   -9.96758   -1.21063
       O     7.84762   -9.91483   -1.20045
      H1     8.06607   -9.09716   -1.62339
       H     6.17210   -5.62653    1.96544
       O     7.00953   -5.17177    1.78016
      H1     6.81887   -4.32583    1.41918
       H     4.76445  -13.41381   -2.53181
       O     4.09357  -12.70510   -2.78951
      H1     3.57115  -13.23805   -3.38035
       H     5.00926   -9.17291    3.02143
       O     5.62534   -9.88895    2.74380
      H1     6.32813   -9.40580    2.31283
       H     1.84556   -2.58849   -0.87230
       O     2.39317   -3.23802   -1.36965
      H1     2.34037   -3.10574   -2.35495
       H     1.40118   -4.97237   -1.19410
       O     0.78835   -5.71187   -1.04724
      H1     0.93258   -6.31744   -1.82215
       H     2.91474   -4.60516    1.94734
       O     2.51387   -4.79645    2.82376
      H1     1.79896   -4.15309    2.93116
       H     8.89263   -8.70688    1.72924
       O     8.85757   -9.58877    1.39467
      H1     8.55466   -9.47362    0.45917
       H     4.75007  -10.42374   -4.70604
       O     4.28037  -11.21834   -5.08384
      H1     4.28286  -11.86568   -4.34326
       H     3.93036   -7.74444   -5.22710
       O     3.33396   -7.00462   -5.03445
      H1     2.54388   -7.35035   -5.42832
       H     0.31182  -10.35689   -1.44632
       O     0.29790  -10.42427   -0.48471
      H1    -0.00627   -9.58455   -0.20221
       H     4.79577   -5.95312   -4.31171
       O     5.51363   -5.46266   -3.85453
      H1     6.26836   -5.39734   -4.40933
       H     2.85015   -8.16244    0.24003
       O     2.89774   -7.22252    0.46058
      H1     2.00411   -6.96996    0.67205
       H     3.53821   -4.13070   -0.26847
       O     3.86269   -4.56525    0.56585
      H1     3.92413   -5.48828    0.35224
       H     9.99974   -6.91976    1.16426
       O     9.28195   -6.83801    1.79336
      H1     8.58370   -6.29602    1.35207
       H     1.84838  -11.46372   -0.41334
       O     2.70960  -11.87443   -0.48440
      H1     2.94513  -11.85927   -1.43197
       H     6.35219   -8.82135   -4.84278
       O     5.57294   -8.61957   -4.29809
      H1     5.76586   -8.13782   -3.48182
       H     5.70730   -6.90671   -1.73996
       O     5.69959   -7.89216   -1.52811
      H1     4.92587   -8.05849   -0.98839
       H     9.97603   -9.06134   -2.28494
       O     9.65269   -8.11808   -2.46373
      H1     9.69252   -7.93405   -3.37609
       H     4.87013  -10.03554    1.19524
       O     4.50871  -10.04758    0.31654
      H1     3.90280  -10.78587    0.30482

