78
frame 6 | Written by MDAnalysis XYZWriter (release 2.4.3)
       H     3.14904    5.87537  -19.51404
       O     2.25699    5.54800  -19.46439
      H1     1.69875    6.29728  -19.06971
       H    -1.70637    7.65323  -16.88507
       O    -2.70330    7.68310  -16.94571
      H1    -2.87830    8.58096  -17.13917
       H     0.88051    9.45012  -19.12967
       O     0.31556   10.23451  -19.16833
      H1     0.12618   10.35714  -20.10851
       H    -1.32881    9.66866  -13.87934
       O    -0.94589   10.12476  -14.69060
      H1    -1.63187   10.57224  -15.14749
       H     0.55361    2.33060  -19.00847
       O     1.26453    2.58931  -19.55151
      H1     1.42520    3.49589  -19.34828
       H     7.25681    8.42099  -16.06581
       O     8.06126    8.83917  -16.34749
      H1     7.99274    8.95659  -17.28847
       H     3.80600    8.77111  -16.85475
       O     4.02290    8.06013  -17.53819
      H1     4.76611    8.47097  -18.02846
       H     2.43865    8.07927  -18.50735
       O     1.51336    8.00386  -18.77455
      H1     1.10938    7.79512  -17.86806
       H     2.19905    6.36341  -14.07284
       O     1.30649    5.99927  -14.33611
      H1     1.31743    5.01770  -14.61682
       H     0.38759   11.93492  -18.55032
       O     0.30734   12.90853  -18.32939
      H1    -0.26253   12.87861  -17.53627
       H    -0.44776    8.60122  -15.74752
       O     0.17833    8.04379  -16.26269
      H1     0.36950    7.26089  -15.68088
       H     1.87655    8.91807  -15.62271
       O     2.72392    9.35507  -15.59235
      H1     3.00780    9.20667  -14.66706
       H     3.82471   12.44741  -16.71392
       O     3.65772   12.11837  -15.83648
      H1     3.19518   11.25670  -15.96162
       H     6.91876    4.96980  -16.45940
       O     6.21008    4.52761  -16.00007
      H1     6.71918    4.30129  -15.19483
       H    -1.54337    3.16924  -17.13430
       O    -0.62497    3.26792  -17.41437
      H1    -0.07172    3.35791  -16.64783
       H     5.45934   11.51668  -18.29820
       O     4.88170   10.98011  -18.85054
      H1     5.44686   10.78683  -19.61116
       H    -1.67016    9.80153  -19.14915
       O    -2.50769   10.30794  -19.28622
      H1    -3.15942    9.69181  -19.72675
       H     4.97069    3.96508  -16.91808
       O     4.26307    3.50462  -17.48338
      H1     3.62038    4.15872  -17.83888
       H    -1.86690    5.43286  -19.06580
       O    -0.92025    5.68122  -19.06547
      H1    -0.59117    4.87223  -18.63526
       H     1.51852   12.15030  -15.31635
       O     0.89085   12.43922  -14.67196
      H1     0.21328   11.75033  -14.63048
       H     4.86927   11.17439  -14.96710
       O     5.08862   10.34358  -14.39739
      H1     5.88711   10.56481  -13.98341
       H     4.96522    7.49578  -16.07849
       O     5.57647    7.59006  -15.33218
      H1     5.53907    8.50439  -15.10157
       H     3.36145    2.13212  -15.30481
       O     2.83945    1.79425  -16.06784
      H1     3.16596    2.42519  -16.76797
       H     2.08596   13.30743  -18.31150
       O     3.06306   13.15538  -18.42683
      H1     3.14072   12.35991  -18.99163
       H     6.45421    7.39254  -19.78706
       O     7.00001    7.67929  -19.05055
      H1     7.48845    6.86635  -18.77154
       H     4.46611    7.39143  -14.11481
       O     3.79027    7.04128  -13.52094
      H1     3.62894    7.76357  -12.94264

