78
frame 7 | Written by MDAnalysis XYZWriter (release 2.4.3)
       H     1.05312   12.69761  -13.15916
       O     1.39219   12.52908  -12.28411
      H1     0.59562   12.18157  -11.81323
       H     3.80060    6.21673  -19.71483
       O     2.88224    6.19387  -19.38593
      H1     2.46055    7.04491  -19.29191
       H    -2.71387    7.69344  -17.77005
       O    -2.60968    8.04583  -16.89830
      H1    -2.93203    9.00928  -16.99867
       H     1.25920    9.72057  -10.00045
       O     0.62815    9.30063  -10.63529
      H1    -0.24629    9.64531  -10.38940
       H    -1.12174   10.10485  -14.16184
       O    -0.91231   10.83483  -14.74967
      H1    -1.73885   10.96092  -15.36085
       H     4.29769    9.39922  -11.60890
       O     5.19574    8.97490  -11.33169
      H1     5.90393    9.57453  -11.65767
       H     3.23264   10.03857  -16.82368
       O     3.67653    9.83026  -17.68097
      H1     4.46458   10.38893  -17.83622
       H     0.80381    7.43515  -10.77409
       O     0.84203    6.56026  -11.20723
      H1     1.05274    6.77722  -12.12043
       H     2.31018    9.02208  -18.59636
       O     1.57793    8.45135  -18.85732
      H1     1.03210    8.28594  -18.04523
       H     4.44483    6.44144  -13.09209
       O     4.80867    5.62243  -12.70760
      H1     4.30715    5.45083  -11.93707
       H     2.09305    7.05317  -14.07981
       O     1.18729    6.70987  -13.87089
      H1     1.20838    5.79263  -14.25918
       H     0.48900   11.77213  -19.30473
       O     0.78307   12.51767  -18.75790
      H1     0.08847   12.76438  -18.19959
       H    -0.91407    7.62108  -16.58439
       O     0.07551    7.52627  -16.52095
      H1     0.34844    7.07991  -15.72367
       H     1.13340    9.49961  -15.76327
       O     2.02787    9.61483  -15.38342
      H1     1.84993    9.56779  -14.42278
       H     3.58436   12.55202  -16.35766
       O     3.79469   12.46223  -15.37233
      H1     4.42524   11.74810  -15.32357
       H     0.12217   14.23268  -16.34278
       O    -0.59127   14.63764  -16.90738
      H1    -1.38451   14.69433  -16.33266
       H    -1.85120    5.79135  -19.36221
       O    -0.99029    6.04083  -19.11487
      H1    -0.69031    5.43977  -18.44331
       H     1.84466   12.51662  -15.09781
       O     0.95839   12.91313  -14.96182
      H1     0.45782   12.07884  -14.98822
       H     6.48796   11.02075  -15.36176
       O     5.75461   10.44595  -15.11857
      H1     5.85812   10.32166  -14.11302
       H    -3.14715    8.79202  -13.56981
       O    -3.92069    9.13440  -14.01627
      H1    -4.38088    8.33597  -14.31814
       H     4.91986    8.48279  -17.26806
       O     5.61948    8.16873  -16.77729
      H1     5.70967    8.77396  -16.03600
       H    -1.07713    7.52902  -12.78269
       O    -1.38914    8.45823  -12.96821
      H1    -1.21308    8.90297  -12.11446
       H     2.28033   12.83990  -18.23253
       O     3.19372   12.90907  -17.89307
      H1     3.74071   12.28318  -18.32903
       H     2.69118   10.65253  -13.07871
       O     2.63069    9.78202  -12.76192
      H1     1.78575    9.85889  -12.22170
       H     4.15417    7.68803  -15.33249
       O     3.69983    7.53807  -14.47994
      H1     3.48839    8.40366  -14.12700
       H    -3.20564   10.81700  -17.78917
       O    -3.17401   10.71161  -16.83055
      H1    -3.97902   11.09720  -16.45759

