78
frame 6 | Written by MDAnalysis XYZWriter (release 2.4.3)
       H    -4.40767    4.15094   11.89628
       O    -5.24948    3.86856   12.18343
      H1    -5.06494    2.88252   12.28482
       H    -7.26126    0.46027   11.18491
       O    -6.64195   -0.24311   11.02630
      H1    -5.92041    0.01919   11.59097
       H    -3.81941   -2.85019   11.72146
       O    -3.52655   -1.96777   11.36624
      H1    -3.46000   -1.51453   12.22812
       H    -1.25345    3.89451   13.19615
       O    -1.36907    4.06708   14.12225
      H1    -0.74497    3.47170   14.59831
       H    -4.12658    3.49935   17.40901
       O    -3.26351    3.85429   17.61442
      H1    -3.00921    4.45585   16.92926
       H    -1.50090   -1.00053   13.97951
       O    -2.39907   -0.99065   13.64430
      H1    -2.80054   -0.14791   13.92454
       H    -7.66676    2.83436   10.34715
       O    -8.21158    2.26584   10.87322
      H1    -9.07493    2.74796   10.83079
       H    -7.64361    1.73029   14.89317
       O    -6.86721    2.29120   14.86660
      H1    -7.10104    3.16977   14.33695
       H    -8.93024    5.00296   12.77119
       O    -9.55615    5.40253   12.16525
      H1    -9.87111    4.69213   11.54857
       H    -1.62946   -1.13471   11.33077
       O    -0.81952   -1.28690   10.81529
      H1    -1.06396   -1.75784    9.99514
       H    -7.94147   -0.66399   18.15450
       O    -7.72335   -0.44575   17.24050
      H1    -6.88437   -0.92770   17.07790
       H    -6.64934   -1.64931   14.12651
       O    -6.33203   -2.53879   14.28492
      H1    -6.83981   -3.15599   13.81082
       H    -5.97108    5.33166   15.62850
       O    -5.55016    5.59320   16.44652
      H1    -4.69582    5.74309   16.12586
       H    -5.82550   -1.77083    9.05657
       O    -5.56823   -2.61787    9.48965
      H1    -5.02500   -2.29561   10.22936
       H    -4.27885    0.88835   17.50075
       O    -3.71553    0.26552   17.06053
      H1    -2.83462    0.30363   17.51441
       H    -7.24555    5.58648   14.02473
       O    -7.29300    4.64427   13.72673
      H1    -6.44828    4.60770   13.23741
       H    -8.49024   -1.82882   16.26767
       O    -8.91445   -2.37329   15.64654
      H1    -8.56233   -1.91334   14.89568
       H    -9.20891    0.26960   13.36388
       O    -8.81017    0.53941   14.24222
      H1    -9.54275    0.19676   14.82764
       H    -5.71161   -2.39576   15.85155
       O    -5.53637   -2.11953   16.77823
      H1    -4.96121   -1.36784   16.63354
       H   -10.82233    0.21367   10.22733
       O    -9.91444    0.30783   10.01959
      H1    -9.60714    1.01873   10.57869
       H    -2.43552    2.61674   14.49489
       O    -3.07224    1.87229   14.47842
      H1    -2.96678    1.42977   15.37098
       H    -7.30417   -0.29043    8.11321
       O    -6.37579   -0.26471    8.31603
      H1    -6.45353   -0.24727    9.30546
       H    -6.07710    2.30906   17.95017
       O    -5.48768    2.38148   17.16090
      H1    -6.03167    2.37773   16.36801
       H    -4.35955    1.41423   13.46095
       O    -5.22979    1.29878   13.04503
      H1    -5.87864    1.71831   13.66308
       H    -0.20390    3.86133   11.03290
       O    -0.87966    3.27656   11.37655
      H1    -0.49740    2.42617   11.22886
       H    -4.37900    2.03058    9.49243
       O    -3.46856    1.86511    9.71847
      H1    -3.42471    1.17708   10.42061

