78
frame 6 | Written by MDAnalysis XYZWriter (release 2.4.3)
       H    17.36090  -13.26182   -5.85357
       O    16.97363  -13.67990   -6.64015
      H1    16.98872  -12.92944   -7.25974
       H    17.83692  -16.64384   -8.15387
       O    18.53436  -16.09059   -8.53657
      H1    19.01259  -16.70634   -9.09666
       H    18.14842   -9.12060   -8.02794
       O    18.01194  -10.03606   -7.69115
      H1    17.60686   -9.88426   -6.83703
       H    11.89861  -10.47294  -11.18067
       O    11.57090   -9.54685  -11.17592
      H1    11.92667   -8.99201  -11.89843
       H    11.94741   -8.47660   -9.77476
       O    12.23374   -7.96749   -9.01357
      H1    13.20089   -8.16221   -8.99806
       H    16.49749   -5.64778  -12.04942
       O    15.59249   -5.85884  -12.22811
      H1    15.32431   -6.68168  -11.75463
       H    13.56730  -11.74903   -7.87965
       O    14.19166  -11.01785   -7.76822
      H1    15.04626  -11.35091   -8.19401
       H    18.32784  -15.82957  -13.44859
       O    17.43073  -15.52309  -13.62817
      H1    17.45389  -14.64751  -13.15298
       H    13.57046  -14.02261  -11.33813
       O    13.05087  -14.19409  -10.54229
      H1    13.15123  -15.13633  -10.34705
       H    18.45172   -9.06176  -12.86588
       O    18.80459   -8.78562  -13.69265
      H1    18.22167   -8.09357  -13.97207
       H    14.63192   -9.32974   -8.34563
       O    14.84317   -8.36747   -8.49911
      H1    14.62525   -8.01960   -7.63742
       H    14.13042  -14.33730   -5.68666
       O    14.48036  -14.64504   -6.56067
      H1    15.39122  -14.28930   -6.62856
       H    19.22424  -13.18395   -9.81374
       O    19.26630  -14.01589  -10.35378
      H1    18.97620  -14.75216   -9.80229
       H    13.17561  -13.54416   -7.44014
       O    12.48338  -13.07963   -8.05128
      H1    12.78578  -13.47696   -8.91843
       H    10.62075  -12.46434  -10.23834
       O    11.27748  -12.38724  -10.94153
      H1    11.82041  -13.17670  -10.80949
       H    15.09075   -9.60131  -14.96057
       O    14.58124   -9.66850  -14.15173
      H1    13.79098  -10.18377  -14.41139
       H    12.88708  -12.76593  -13.38428
       O    13.50157  -13.47945  -13.49429
      H1    14.06678  -13.20020  -14.22393
       H    15.33576  -16.65623   -9.98206
       O    15.11348  -16.89996   -9.07566
      H1    15.43030  -17.80659   -8.96907
       H    15.10845   -9.09552  -11.51026
       O    14.66025   -8.28238  -11.17624
      H1    14.77617   -8.31267  -10.19562
       H    18.83805   -7.24705   -9.48731
       O    18.15377   -7.91732   -9.46659
      H1    18.46869   -8.67946  -10.00376
       H    19.04264  -10.58785  -11.46304
       O    18.29194  -10.02932  -11.17554
      H1    17.48673  -10.38438  -11.62465
       H    19.30358  -11.31097   -8.23680
       O    19.88572  -12.00215   -8.52364
      H1    19.90736  -12.78150   -7.96151
       H    17.00183  -11.04778   -8.90908
       O    16.48182  -11.79489   -9.20561
      H1    16.31108  -11.69003  -10.10968
       H    18.14731  -13.26940  -11.62071
       O    17.77619  -13.05559  -12.47301
      H1    18.48281  -13.22325  -13.12966
       H    15.06042  -16.26070  -12.79621
       O    14.93244  -16.54873  -11.86012
      H1    14.87412  -17.50751  -11.91177
       H    16.43328  -11.64395  -12.50213
       O    15.87511  -10.97346  -12.07979
      H1    15.53154  -10.41791  -12.81064

