78
frame 6 | Written by MDAnalysis XYZWriter (release 2.4.3)
       H    15.72999    3.15469    7.52156
       O    15.86259    3.58670    6.64298
      H1    15.87415    4.55161    6.78360
       H    10.04401   -3.78204    5.08791
       O    10.83188   -3.27796    4.80842
      H1    11.26149   -3.64124    4.03365
       H    11.31968   -2.55688    6.39665
       O    11.52042   -2.35127    7.38616
      H1    12.25967   -1.78194    7.35247
       H    14.32131    2.84130    5.50795
       O    13.85530    2.40106    4.74979
      H1    13.35224    1.67516    5.10968
       H    12.85159    3.82295    4.34076
       O    12.38898    4.64638    4.66901
      H1    11.54599    4.73452    4.23668
       H     9.73567   -1.68226    4.14900
       O     9.46375   -0.81115    3.78751
      H1     8.52096   -0.86714    3.49510
       H    14.56802   -1.28669    8.17116
       O    15.05306   -1.57552    8.96772
      H1    15.65363   -2.26696    8.55941
       H    14.23868   -4.14332    4.43364
       O    14.50575   -3.21383    4.63051
      H1    15.43548   -3.25820    4.33031
       H    17.10073   -1.67926    5.13193
       O    17.48314   -2.48183    4.75079
      H1    18.16412   -2.74655    5.40333
       H    13.42170    0.27818    7.50749
       O    13.62303   -0.45439    6.87940
      H1    14.33657   -0.13405    6.31970
       H    16.14665    1.70047    9.36991
       O    15.67994    2.53260    9.55211
      H1    14.75704    2.23138    9.72313
       H    16.67301   -4.40243    8.24313
       O    17.18715   -3.62706    8.50113
      H1    17.73360   -3.74955    9.30381
       H    16.30419   -0.95345   10.29459
       O    17.16288   -0.91586   10.67443
      H1    17.53952   -1.47633   10.01536
       H    18.71176   -0.08320    7.24859
       O    17.95189    0.44854    7.08550
      H1    18.31161    1.31035    6.80772
       H    13.35383   -3.47354    7.68612
       O    13.92498   -4.14195    7.27820
      H1    13.97531   -4.00199    6.32191
       H    13.28432   -1.97729    3.55698
       O    12.74837   -1.56074    2.89137
      H1    12.42113   -0.83130    3.41261
       H     9.81748   -1.23865    7.21530
       O     9.18206   -0.53675    6.89254
      H1     9.11500   -0.53861    5.91912
       H    15.31891   -1.53019    1.59390
       O    14.95816   -0.66826    1.89513
      H1    14.19621   -0.91538    2.38710
       H    11.62569   -0.52264   10.58755
       O    11.50078    0.37419   10.80145
      H1    10.54896    0.54273   10.77290
       H    11.93526    3.91714    6.51777
       O    12.08586    3.79979    7.48843
      H1    11.22873    3.50829    7.87920
       H    16.50996    0.40474    6.00826
       O    15.80056    0.13356    5.45144
      H1    16.04871    0.75209    4.74046
       H    10.96465   -4.16352    7.98325
       O    10.53399   -5.08097    7.97807
      H1    10.55190   -5.36505    8.89365
       H    10.79109    0.25210    3.92049
       O    11.58944    0.77087    3.89020
      H1    11.61461    1.21247    3.02708
       H    11.29399   -2.66190   10.57356
       O    12.11181   -2.21702   10.49362
      H1    12.73458   -2.56944   11.15311
       H    12.75745    2.12293    8.18335
       O    13.15271    1.44343    8.74232
      H1    12.49687    1.16955    9.44490
       H    10.46156    2.05043    4.36319
       O    10.00281    2.90021    4.54024
      H1     9.15132    2.81113    4.14952

