78
frame 7 | Written by MDAnalysis XYZWriter (release 2.4.3)
       H   -17.80098   11.76456   -8.78236
       O   -18.45086   11.06579   -8.67447
      H1   -19.29956   11.46619   -8.73658
       H   -13.76127   12.43791   -9.93227
       O   -13.84223   13.15324   -9.25773
      H1   -14.73540   13.46699   -9.28381
       H   -14.38863   11.64673  -12.14339
       O   -14.51940   11.13558  -11.30259
      H1   -15.38547   10.82008  -11.26258
       H   -15.65583   13.62051  -12.76621
       O   -16.18749   14.14532  -12.14053
      H1   -15.55475   14.76912  -11.71453
       H   -14.50435    8.60492   -9.66622
       O   -13.78802    8.89866  -10.19628
      H1   -14.04497    9.78985  -10.53545
       H   -12.78408   11.20102   -5.43653
       O   -12.80491   10.60540   -6.17073
      H1   -13.61659   10.81860   -6.69663
       H   -10.54373    9.50284   -9.46800
       O   -10.87368    8.65782   -9.93404
      H1   -11.81086    8.91090  -10.14944
       H   -17.84497   10.50453  -13.73693
       O   -17.18234   10.01462  -13.22253
      H1   -17.22780   10.14017  -12.21087
       H   -16.50199    6.32987  -12.95462
       O   -15.94836    6.05318  -12.17769
      H1   -15.11457    6.62591  -12.29840
       H   -18.26438    9.28531   -5.25128
       O   -17.94662    9.85064   -4.53591
      H1   -18.16024    9.30736   -3.76990
       H   -14.93963    7.17932   -8.13104
       O   -15.69309    7.63928   -8.45206
      H1   -16.26715    6.94586   -8.85100
       H   -13.44419   13.76110  -13.06733
       O   -13.86422   12.96444  -13.37123
      H1   -13.88833   13.00429  -14.31878
       H   -15.14510   10.74094   -3.96874
       O   -15.22487    9.84149   -4.20861
      H1   -16.18797    9.71910   -4.41351
       H   -17.52108   13.50869   -9.57156
       O   -16.76652   13.25295   -9.03043
      H1   -16.86514   13.79115   -8.16474
       H   -18.70125    7.80947   -7.21269
       O   -18.01728    7.76470   -6.54080
      H1   -17.19677    8.01787   -6.97961
       H   -17.16801    6.20332  -11.00078
       O   -17.45542    6.27562  -10.02810
      H1   -18.43873    6.12298   -9.96756
       H   -14.62840   10.26283  -15.73534
       O   -14.88363    9.41496  -15.34136
      H1   -15.61126    9.65606  -14.76496
       H   -18.64501   14.14912  -11.12038
       O   -18.89117   13.98137  -10.17954
      H1   -18.84581   14.84855   -9.78057
       H   -15.56711   11.89603   -5.77670
       O   -15.65004   12.56909   -5.12435
      H1   -14.91568   13.19532   -5.27768
       H   -18.50249   14.35057  -13.60270
       O   -19.20260   14.07528  -13.01174
      H1   -19.55820   13.34988  -13.59053
       H   -18.29383    6.31627   -5.80124
       O   -18.37358    5.40970   -5.43298
      H1   -19.20176    5.05139   -5.86846
       H   -17.37796   10.08727   -9.93435
       O   -16.88139    9.58082  -10.50520
      H1   -17.22556    8.68799  -10.33664
       H   -13.90637    8.37021  -11.89436
       O   -14.04267    8.04522  -12.77809
      H1   -14.53012    8.69026  -13.28659
       H   -18.75914    6.86796  -13.37054
       O   -18.13094    7.37892  -13.91222
      H1   -18.11776    8.26451  -13.57576
       H   -15.34691   10.17788   -7.77536
       O   -15.04240   11.04228   -7.52785
      H1   -15.05057   11.64419   -8.31931
       H   -15.77067   15.05750   -6.48652
       O   -16.72684   14.80081   -6.58845
      H1   -16.87956   14.05958   -6.04534

