78
frame 7 | Written by MDAnalysis XYZWriter (release 2.4.3)
       H    12.24485    4.96720   15.30214
       O    12.62175    4.12538   15.67267
      H1    12.24341    3.46057   14.99899
       H     9.53350   -2.05689   15.89709
       O     9.01445   -2.69702   16.40624
      H1     9.56778   -3.44778   16.29363
       H    10.35926    4.30716   16.22165
       O     9.60902    4.16519   16.81375
      H1     9.82688    3.34180   17.33108
       H     8.71573    2.36335   15.87780
       O     8.23773    1.49211   15.94015
      H1     7.64852    1.63721   15.14280
       H    11.01536    2.11920   14.00421
       O    11.92173    1.83103   14.38085
      H1    12.52927    1.74953   13.63083
       H    14.48177    1.70210   12.27155
       O    13.64179    2.19164   12.24463
      H1    13.23341    1.98463   11.39250
       H    13.45452   -1.94096   13.34708
       O    13.36508   -0.95790   13.43614
      H1    12.69619   -0.73653   12.78776
       H     6.99406   -3.00073   15.53048
       O     6.00237   -2.79501   15.45123
      H1     5.57286   -2.89983   16.33463
       H    16.10012    0.39714   15.07994
       O    15.18881    0.68553   15.32851
      H1    14.59640    0.25334   14.68005
       H     4.97523    0.23132   16.46554
       O     4.96226   -0.30387   15.65670
      H1     5.48224   -1.10056   15.85353
       H    10.62602   -6.09702   16.66929
       O    10.14107   -5.38909   16.20648
      H1    10.98773   -5.03306   15.85871
       H     9.73533   -0.26277   14.03683
       O     9.36263   -0.43742   13.11820
      H1     8.42309   -0.35947   13.34450
       H     6.60907    1.74220   13.54938
       O     6.65764    2.58212   14.01819
      H1     5.94594    3.11356   13.57149
       H     4.72666    0.64648   18.56456
       O     5.13318    1.29035   17.96244
      H1     6.08149    1.26040   18.16401
       H     6.69242   -3.08666   18.49738
       O     7.46887   -3.66919   18.55141
      H1     7.98592   -3.33014   17.78816
       H    11.78698   -0.92654   16.11009
       O    12.53636   -1.51808   16.07802
      H1    12.89914   -1.28634   15.22900
       H    11.60098   -1.10985   11.15239
       O    11.42627   -0.20849   11.41702
      H1    10.69894   -0.06453   12.03704
       H     6.27378   -0.53452   12.91308
       O     6.82307   -0.34886   13.65268
      H1     6.14197   -0.30632   14.40837
       H    13.02451   -3.39331   16.37367
       O    13.01732   -4.26459   15.94984
      H1    13.30300   -4.80384   16.66633
       H    10.38766    3.68263   12.39503
       O     9.96633    3.13132   13.11564
      H1     9.50423    2.47011   12.60711
       H     9.61849    2.46775   19.64305
       O    10.01029    2.31822   18.76526
      H1    10.86763    1.89599   18.98218
       H     8.97203    1.04574   18.54945
       O     8.22451    0.37759   18.48673
      H1     8.00930    0.43491   17.52374
       H    14.94709    2.23415   15.84248
       O    15.10326    3.18052   16.13029
      H1    14.24695    3.60407   16.23725
       H    13.50331   -1.09193   18.71336
       O    14.03184   -0.49804   18.16373
      H1    13.71052   -0.71087   17.28602
       H     9.78575    0.53239   16.00944
       O    10.49613    0.01005   15.62688
      H1    11.24060    0.58677   15.38282
       H     9.67986   -3.45112   13.67284
       O    10.52690   -3.01081   13.50463
      H1    10.27052   -2.09351   13.23318

