78
frame 7 | Written by MDAnalysis XYZWriter (release 2.4.3)
       H     6.10401    2.30535  -18.02317
       O     5.37868    1.83700  -17.59415
      H1     4.77801    2.53730  -17.34192
       H    -1.01739    4.76279  -13.72775
       O    -1.77765    5.30978  -13.54756
      H1    -1.91931    5.38404  -12.61837
       H     3.80060    6.21673  -19.71483
       O     2.88224    6.19387  -19.38593
      H1     2.46055    7.04491  -19.29191
       H    -2.71387    7.69344  -17.77005
       O    -2.60968    8.04583  -16.89830
      H1    -2.93203    9.00928  -16.99867
       H     1.47762    3.43744  -15.13992
       O     0.95070    4.00203  -14.48783
      H1     0.82953    3.36388  -13.75375
       H     0.57294    3.73831  -17.99744
       O     1.02366    3.72811  -18.85975
      H1     1.58087    4.50863  -19.08466
       H     4.54168    2.05702  -14.18159
       O     3.98791    1.28776  -14.09265
      H1     4.53885    0.56222  -14.47277
       H    -2.49460    1.83954  -19.26675
       O    -3.46881    1.82769  -19.32657
      H1    -3.70767    2.58929  -18.79382
       H     0.80381    7.43515  -10.77409
       O     0.84203    6.56026  -11.20723
      H1     1.05274    6.77722  -12.12043
       H     0.65103   -0.43161  -15.29282
       O     1.07986   -0.38760  -16.12134
      H1     1.35178    0.53500  -16.25517
       H     2.31018    9.02208  -18.59636
       O     1.57793    8.45135  -18.85732
      H1     1.03210    8.28594  -18.04523
       H     2.09305    7.05317  -14.07981
       O     1.18729    6.70987  -13.87089
      H1     1.20838    5.79263  -14.25918
       H     1.04658    2.39967  -11.82176
       O     0.22515    2.81993  -12.06093
      H1    -0.29488    2.17606  -12.55310
       H    -0.91407    7.62108  -16.58439
       O     0.07551    7.52627  -16.52095
      H1     0.34844    7.07991  -15.72367
       H     3.14893    1.86447  -12.56294
       O     2.90825    1.80212  -11.60489
      H1     2.94938    2.74330  -11.26748
       H    -3.19897    4.00561  -11.36981
       O    -2.56103    4.66878  -11.05422
      H1    -3.01961    5.44159  -10.74944
       H    -2.63831    1.16553  -13.07943
       O    -1.90152    1.19468  -13.66216
      H1    -1.55183    0.26752  -13.58300
       H    -1.55307    4.07502  -16.74352
       O    -0.57457    3.99927  -16.74042
      H1    -0.18513    3.92745  -15.83733
       H    -3.50936    6.80943  -15.56265
       O    -3.81037    6.04823  -15.03437
      H1    -2.99805    5.77220  -14.51786
       H    -2.72760    0.59634  -16.67834
       O    -3.24160    1.16001  -16.06974
      H1    -2.71740    1.20642  -15.22825
       H    -3.34840    2.80682  -16.58945
       O    -3.27564    3.71523  -16.95111
      H1    -3.79746    4.36654  -16.48368
       H    -0.78254   -0.58911  -17.16706
       O    -1.57465   -0.35430  -17.60112
      H1    -2.26168   -0.98961  -17.55942
       H     4.30061    4.24486  -16.10099
       O     3.79995    4.08540  -16.92815
      H1     3.62783    4.95224  -17.36419
       H    -1.85120    5.79135  -19.36221
       O    -0.99029    6.04083  -19.11487
      H1    -0.69031    5.43977  -18.44331
       H     2.90900    1.77578  -15.33702
       O     2.13352    1.96314  -15.92699
      H1     2.41136    2.67108  -16.55396
       H    -1.07713    7.52902  -12.78269
       O    -1.38914    8.45823  -12.96821
      H1    -1.21308    8.90297  -12.11446

