78
frame 7 | Written by MDAnalysis XYZWriter (release 2.4.3)
       H    -0.80622    8.80820    9.56634
       O    -1.58964    9.38477    9.35058
      H1    -2.24624    8.66808    9.32432
       H     4.72393   11.91938   14.86016
       O     5.48724   11.57801   15.37529
      H1     5.91539   10.84233   14.92572
       H     3.32295   13.78906   14.50433
       O     3.51098   12.91348   14.24637
      H1     3.93733   13.00074   13.38460
       H     0.48070    9.65869   19.52292
       O    -0.05913   10.41538   19.15908
      H1     0.16356   10.40911   18.22873
       H     3.69272   12.06329    7.16954
       O     2.74346   12.06589    7.35748
      H1     2.83099   11.76250    8.31641
       H    -1.14414   11.41884    9.90930
       O    -0.54921   12.15548   10.04527
      H1    -0.74960   12.74304    9.26255
       H    -1.95638    9.36090   12.48755
       O    -2.87631    9.08143   12.65649
      H1    -2.80311    8.90517   13.60153
       H    -5.53403   10.03793   11.26922
       O    -5.53326    9.16034   11.68688
      H1    -4.64828    9.17975   12.11736
       H     2.43841    9.48425   15.20081
       O     2.28646    8.76431   15.81614
      H1     2.60667    9.06740   16.66836
       H     4.71709   13.97821   10.80128
       O     4.54438   13.15353   11.32701
      H1     3.81862   12.64517   10.92210
       H    -0.99535   14.12441   17.50948
       O    -1.32571   13.54435   16.78397
      H1    -2.25707   13.23640   17.05358
       H    -0.45774   13.96313   15.19812
       O    -0.37877   14.12613   14.26309
      H1    -0.64162   13.29314   13.84384
       H    -0.02484   16.18107   10.76848
       O     0.66533   15.53498   10.54131
      H1     0.44631   14.59900   10.75501
       H    -0.91036    6.67060   18.20360
       O    -1.34965    7.07235   17.42262
      H1    -0.99585    7.98163   17.43320
       H     1.11757    8.36720    9.15238
       O     0.84244    8.90751    9.93901
      H1     1.04846    8.50049   10.77607
       H     0.94403    6.13870   15.66499
       O     0.75700    6.68008   14.88409
      H1     1.45268    7.35198   15.00045
       H     0.30230   11.29058   13.22595
       O    -0.58437   11.35774   12.92288
      H1    -0.63570   11.92091   12.15175
       H    -3.28252   10.51262   15.24792
       O    -3.08852    9.53367   15.31494
      H1    -2.20141    9.47583   15.69029
       H     2.77015    7.33655   12.36912
       O     2.97920    8.26606   12.12495
      H1     3.89563    8.31632   12.30309
       H    -3.82964   12.86913   14.97858
       O    -4.25106   12.01655   15.01632
      H1    -4.98885   12.05711   15.67624
       H     0.29926   10.56087   15.41308
       O    -0.33530   10.47517   16.12824
      H1    -0.55257   11.39482   16.47897
       H    -0.14532    7.04476   13.33815
       O    -0.21504    7.43945   12.40386
      H1    -1.16570    7.68181   12.39088
       H    -1.97654   14.74905   14.78576
       O    -2.89115   14.92059   14.94424
      H1    -3.12245   15.57201   14.30954
       H     2.11425   10.39516   13.10034
       O     1.90585   10.73857   13.98329
      H1     2.56786   11.46859   14.06423
       H     2.63120   16.35956   14.90357
       O     2.54998   15.42087   15.15331
      H1     1.77482   15.10720   14.66734
       H     1.21841   11.61214    9.98588
       O     2.18876   11.43122   10.00650
      H1     2.09754   10.43192    9.95543

