78
frame 0 | Written by MDAnalysis XYZWriter (release 2.4.3)
       H   -18.51916   -0.53497   -4.81246
       O   -18.40683    0.42853   -4.87816
      H1   -17.93045    0.59171   -4.06412
       H   -19.36193    1.53295  -10.41936
       O   -18.87446    2.15957   -9.92185
      H1   -19.53728    2.62186   -9.34045
       H   -15.65887    0.50158   -6.25144
       O   -15.08761   -0.20930   -6.62470
      H1   -14.55079    0.16609   -7.28327
       H   -11.82773    4.71052   -4.70107
       O   -11.02806    5.05277   -5.17922
      H1   -10.83154    5.89777   -4.77427
       H   -17.21363    5.17728  -10.78284
       O   -17.94867    4.54591  -10.94269
      H1   -17.80878    3.73947  -10.37482
       H   -14.52078    0.38572   -9.70044
       O   -14.17082   -0.47650  -10.01860
      H1   -14.92343   -0.89125  -10.49388
       H   -14.54214   -1.98039   -6.33146
       O   -14.35987   -2.93994   -6.43792
      H1   -13.80041   -2.94474   -7.22457
       H   -14.85944   -3.23187   -3.63781
       O   -15.07392   -2.46083   -3.06084
      H1   -14.38602   -1.79611   -3.29291
       H   -12.71338    0.12591   -9.21384
       O   -12.11436    0.61639   -8.63764
      H1   -11.55390   -0.03252   -8.31045
       H   -18.82267   -1.69665   -7.41782
       O   -17.88140   -1.89214   -7.51420
      H1   -17.36405   -1.08260   -7.50420
       H   -16.11639    5.22729   -3.76219
       O   -16.54589    5.81718   -4.41709
      H1   -15.89098    6.53780   -4.61637
       H   -18.08219   -2.59669   -5.59136
       O   -18.18876   -2.38285   -4.66882
      H1   -17.27767   -2.54703   -4.29774
       H   -14.23365    5.20698   -7.51087
       O   -14.07046    4.28194   -7.49864
      H1   -14.47774    3.95095   -8.32318
       H   -16.82135    2.84123   -5.76200
       O   -16.05517    2.30187   -5.56050
      H1   -15.31465    2.87410   -5.86811
       H   -13.31204    0.29344   -3.65949
       O   -13.40132   -0.55955   -4.13113
      H1   -13.92650   -0.33485   -4.90471
       H   -18.06854    0.97856   -7.00894
       O   -17.55453    1.00895   -7.82319
      H1   -18.10455    1.49663   -8.53474
       H   -15.78679    2.16440   -9.96857
       O   -15.50715    1.82930   -9.10613
      H1   -16.27771    1.59423   -8.53681
       H   -18.93856    3.43154   -3.97493
       O   -18.95050    3.02651   -3.07089
      H1   -18.01969    2.66466   -2.96149
       H   -12.82996    3.07234   -5.77784
       O   -13.10745    3.24203   -4.85949
      H1   -13.74508    3.92480   -4.94992
       H   -18.25333    4.77027   -5.37700
       O   -18.50256    3.89983   -5.67206
      H1   -19.30638    3.88355   -6.18148
       H   -12.26953    1.38427   -1.54223
       O   -13.03001    0.77752   -1.54481
      H1   -12.73102   -0.08650   -1.55200
       H   -14.40447    2.56636   -2.18568
       O   -14.96584    2.95001   -2.84752
      H1   -14.75267    2.50575   -3.67067
       H   -16.46118    0.85766   -1.88176
       O   -16.94153    1.27639   -2.61707
      H1   -16.38578    1.99394   -2.87309
       H   -19.71299    6.58603   -8.84800
       O   -19.22767    6.43079   -8.00482
      H1   -19.36129    5.45710   -7.98138
       H   -11.62313   -0.05763   -4.23710
       O   -10.84230    0.44433   -4.48660
      H1   -10.44380    0.05077   -5.29393
       H   -14.74792    7.13436   -8.74676
       O   -14.86295    6.82728   -7.81842
      H1   -15.80490    6.98385   -7.61077

