78
frame 7 | Written by MDAnalysis XYZWriter (release 2.4.3)
       H   -13.76127   12.43791   -9.93227
       O   -13.84223   13.15324   -9.25773
      H1   -14.73540   13.46699   -9.28381
       H   -14.38863   11.64673  -12.14339
       O   -14.51940   11.13558  -11.30259
      H1   -15.38547   10.82008  -11.26258
       H   -15.65583   13.62051  -12.76621
       O   -16.18749   14.14532  -12.14053
      H1   -15.55475   14.76912  -11.71453
       H   -19.68628   15.92427  -12.26542
       O   -19.56354   16.81226  -11.93655
      H1   -19.39533   16.58859  -11.01882
       H   -20.05935   15.59178  -17.97707
       O   -19.67836   14.75596  -18.31027
      H1   -18.70880   14.90033  -18.21931
       H   -16.99888   15.69492  -13.28707
       O   -17.28748   15.75717  -14.18515
      H1   -17.94937   16.47422  -14.26342
       H   -16.21539   18.42217  -18.88669
       O   -15.60405   17.91357  -18.34900
      H1   -16.15068   17.27080  -17.82004
       H   -11.57368   15.88131  -13.78428
       O   -11.63086   14.95642  -13.58047
      H1   -10.95411   14.32283  -13.94928
       H   -16.37504   19.89563  -16.35476
       O   -16.19188   19.04967  -15.87570
      H1   -15.79494   18.59183  -16.62614
       H   -18.54020   19.83344  -11.58530
       O   -18.74294   19.38540  -12.47412
      H1   -19.22801   18.51751  -12.28704
       H   -17.84497   10.50453  -13.73693
       O   -17.18234   10.01462  -13.22253
      H1   -17.22780   10.14017  -12.21087
       H   -13.44419   13.76110  -13.06733
       O   -13.86422   12.96444  -13.37123
      H1   -13.88833   13.00429  -14.31878
       H   -17.52108   13.50869   -9.57156
       O   -16.76652   13.25295   -9.03043
      H1   -16.86514   13.79115   -8.16474
       H   -13.31254   16.01906  -11.52855
       O   -14.04743   15.60635  -11.04135
      H1   -13.56755   15.03114  -10.47644
       H   -15.34974   18.69667  -12.51822
       O   -16.08503   18.06579  -12.40135
      H1   -16.88199   18.57556  -12.65630
       H   -18.64501   14.14912  -11.12038
       O   -18.89117   13.98137  -10.17954
      H1   -18.84581   14.84855   -9.78057
       H   -18.00810   12.04442  -15.67524
       O   -17.29941   12.26955  -16.32584
      H1   -17.54529   11.79328  -17.15680
       H   -16.43511   18.10529  -10.68785
       O   -16.71190   18.21906   -9.76666
      H1   -17.28565   19.04293   -9.89290
       H   -18.94674   17.37611  -16.01243
       O   -18.50237   17.84803  -15.33836
      H1   -17.67586   18.20421  -15.68001
       H   -18.05813   17.22804   -9.31497
       O   -18.87606   16.76188   -9.09268
      H1   -18.91550   16.81232   -8.12485
       H   -15.00485   17.90670   -9.42451
       O   -14.15479   17.47408   -9.12611
      H1   -14.14169   16.76017   -9.75838
       H   -11.45194   17.22039  -15.47141
       O   -11.59277   17.80467  -14.70779
      H1   -12.55498   17.87401  -14.58099
       H   -18.50249   14.35057  -13.60270
       O   -19.20260   14.07528  -13.01174
      H1   -19.55820   13.34988  -13.59053
       H   -14.28735   12.70982  -16.93254
       O   -14.61303   11.91703  -16.50989
      H1   -15.61900   12.02385  -16.57044
       H   -14.53716   16.49443  -15.09691
       O   -14.17146   17.29681  -14.73698
      H1   -14.98084   17.57051  -14.28077
       H   -16.22621   15.14659  -17.29153
       O   -16.59923   15.93377  -16.88167
      H1   -16.71431   15.73186  -15.95428

