78
frame 7 | Written by MDAnalysis XYZWriter (release 2.4.3)
       H    -3.76554   -2.11042  -18.19776
       O    -3.30310   -2.54000  -17.41354
      H1    -3.73294   -2.05619  -16.67322
       H    -1.92335  -10.86421  -17.09035
       O    -1.44662  -11.74079  -17.08939
      H1    -1.42699  -12.12478  -17.99432
       H     4.05249  -11.29174  -15.09324
       O     3.73149  -11.36167  -16.03119
      H1     2.86405  -11.76067  -15.96811
       H     3.54143   -3.87758  -18.80961
       O     4.20507   -4.50829  -18.56581
      H1     4.53090   -4.94830  -19.36531
       H     4.80230   -5.86986  -16.94502
       O     5.51150   -6.04723  -16.33411
      H1     6.22123   -5.65679  -16.82527
       H     3.71431   -9.47683  -16.36997
       O     3.31119   -8.62341  -16.46283
      H1     3.26806   -8.34052  -15.52176
       H    -2.22521   -4.55863  -15.09351
       O    -2.96282   -4.81186  -15.69378
      H1    -3.47122   -4.07188  -16.10836
       H     1.29843  -13.36007  -15.93076
       O     1.04340  -12.40327  -16.12445
      H1     0.15135  -12.44507  -16.47927
       H    -3.42679   -9.37950  -17.27258
       O    -3.23422   -9.81859  -16.43510
      H1    -3.72089   -9.37015  -15.75315
       H     0.07721   -7.04977  -13.29502
       O     0.86567   -6.47963  -13.21869
      H1     1.51901   -6.90205  -13.81109
       H    -3.75310   -9.34644  -19.68296
       O    -4.17545   -8.82856  -18.99046
      H1    -4.99934   -8.45586  -19.37878
       H     4.79070   -8.44536  -17.97665
       O     5.14142   -8.43619  -18.90300
      H1     6.15167   -8.41537  -18.81625
       H     3.60305  -12.49579  -18.89189
       O     4.35002  -12.78414  -18.33627
      H1     4.24755  -12.33141  -17.49895
       H     1.64555  -11.87147  -17.84777
       O     1.86637  -11.73728  -18.82560
      H1     2.11528  -10.79308  -18.88051
       H    -0.66111   -5.54621  -17.86865
       O    -0.99876   -4.69122  -17.55444
      H1    -1.72507   -4.82816  -16.95975
       H    -0.78254   -0.58911  -17.16706
       O    -1.57465   -0.35430  -17.60112
      H1    -2.26168   -0.98961  -17.55942
       H     0.55225   -6.93282  -19.74310
       O     0.22819   -7.80571  -19.43324
      H1     1.02309   -8.42099  -19.44460
       H     4.42462   -3.68741  -13.81686
       O     5.17730   -4.30292  -14.03298
      H1     4.91692   -4.83396  -14.81259
       H     0.75750   -2.91824  -18.97397
       O     1.66386   -2.96403  -18.66898
      H1     1.73271   -2.28036  -18.01377
       H    -3.94738   -5.91758  -17.10817
       O    -4.67107   -6.51609  -17.43641
      H1    -4.25738   -7.26882  -17.81731
       H     1.53047   -7.54616  -16.57202
       O     0.89164   -7.15351  -15.96062
      H1     0.99553   -6.19957  -15.94115
       H     2.19821   -3.42355  -15.84953
       O     1.75606   -4.25240  -16.01478
      H1     1.37339   -4.02915  -16.90589
       H    -2.07452   -7.39716  -12.23600
       O    -1.76250   -7.33126  -13.14627
      H1    -1.61834   -8.22493  -13.49189
       H    -0.15566   -4.86049  -13.81148
       O    -0.51119   -4.39635  -14.58674
      H1     0.28062   -4.09936  -15.06604
       H     0.70627   -9.95471  -14.84724
       O     0.32114   -9.31915  -14.25259
      H1     0.38244   -8.48756  -14.79852
       H     3.80614   -1.52038  -16.72448
       O     3.84704   -1.34675  -17.65499
      H1     4.02006   -0.39781  -17.82479

