78
frame 6 | Written by MDAnalysis XYZWriter (release 2.4.3)
       H     0.27095  -16.69992    2.27027
       O     1.26916  -16.87167    2.35267
      H1     1.70680  -16.05799    2.61163
       H     2.74704  -11.14673   -5.04363
       O     1.79397  -10.86643   -5.14170
      H1     1.28458  -11.50248   -4.64765
       H     2.44920  -14.47449    1.62394
       O     2.76575  -14.53334    2.54186
      H1     3.69677  -14.93145    2.34186
       H     4.76445  -13.41381   -2.53181
       O     4.09357  -12.70510   -2.78951
      H1     3.57115  -13.23805   -3.38035
       H     2.39279  -10.84020    4.08575
       O     2.35496   -9.87198    4.12994
      H1     1.48807   -9.48188    4.37120
       H    -0.24349  -12.95721   -4.22139
       O     0.59124  -12.86007   -3.70064
      H1     0.37649  -13.15551   -2.80251
       H     2.24555  -15.36406   -0.49550
       O     1.96285  -14.53795   -0.03133
      H1     2.55091  -13.85161   -0.33323
       H     5.69220  -16.51425    1.42857
       O     5.48733  -15.67939    1.85318
      H1     6.02686  -15.06991    1.36970
       H     8.12740  -14.75383    1.11624
       O     7.75476  -13.85789    1.25183
      H1     8.09814  -13.38544    0.51910
       H     4.75007  -10.42374   -4.70604
       O     4.28037  -11.21834   -5.08384
      H1     4.28286  -11.86568   -4.34326
       H     0.93467  -18.24968   -4.41736
       O     1.05514  -17.94880   -3.49101
      H1     0.16400  -17.89847   -3.11604
       H     5.02569  -18.44156    0.81295
       O     5.95962  -18.28881    0.72989
      H1     6.20092  -18.05709   -0.13751
       H     0.31182  -10.35689   -1.44632
       O     0.29790  -10.42427   -0.48471
      H1    -0.00627   -9.58455   -0.20221
       H    -1.44650  -15.28514   -0.83097
       O    -1.92677  -16.02226   -0.42579
      H1    -1.62050  -16.68297   -1.02492
       H    -1.66283  -15.85265    1.50530
       O    -1.42945  -16.13857    2.38541
      H1    -1.13254  -15.34817    2.88215
       H     3.87431  -16.65836   -1.81138
       O     3.77662  -16.19823   -2.65155
      H1     4.64050  -16.43921   -3.00388
       H    -0.82407  -13.12613   -0.81153
       O    -0.27679  -13.82665   -1.24546
      H1     0.42231  -14.09891   -0.63096
       H     5.93414  -13.82242    4.56369
       O     5.19585  -14.41204    4.29950
      H1     5.50148  -14.92999    3.54389
       H     2.76722  -15.30312   -3.64261
       O     2.51840  -14.53170   -4.24379
      H1     1.69789  -14.13237   -3.96533
       H    -0.05014  -11.60719    4.05156
       O    -0.37041  -11.94783    3.20147
      H1    -1.13141  -11.27594    3.01444
       H     3.54569  -12.56014    5.24668
       O     2.74287  -12.58800    4.72165
      H1     2.87624  -13.21105    4.03224
       H     2.18044  -16.95106    0.56303
       O     2.76623  -17.05387   -0.19464
      H1     2.27135  -17.65584   -0.79701
       H    -0.53782  -13.68308    3.98536
       O    -0.95534  -14.50752    4.37275
      H1    -1.85931  -14.20574    4.47356
       H     1.84838  -11.46372   -0.41334
       O     2.70960  -11.87443   -0.48440
      H1     2.94513  -11.85927   -1.43197
       H    -2.79578  -11.99789   -0.09646
       O    -2.15662  -11.83756   -0.73005
      H1    -1.50926  -11.19548   -0.46903
       H     4.87013  -10.03554    1.19524
       O     4.50871  -10.04758    0.31654
      H1     3.90280  -10.78587    0.30482

