78
frame 8 | Written by MDAnalysis XYZWriter (release 2.4.3)
       H     7.01151   -6.23868  -12.90190
       O     7.84954   -6.65277  -12.63998
      H1     8.04771   -6.44413  -11.75288
       H     8.97857   -4.50944  -15.09047
       O     8.65622   -3.61804  -14.95020
      H1     7.75374   -3.59083  -14.60969
       H    13.39463   -1.71181   -8.65858
       O    12.65273   -1.42364   -8.05116
      H1    12.25385   -0.74634   -8.62896
       H    13.50944    0.92446   -6.40974
       O    14.01374    0.77756   -7.14823
      H1    13.48619    0.20078   -7.67950
       H     9.16399    1.36834   -6.73086
       O     8.77349    0.74878   -7.37245
      H1     8.13891    1.21620   -7.93832
       H     4.89449   -0.24967   -9.65959
       O     5.35429    0.13200  -10.44937
      H1     4.63803    0.43752  -11.03885
       H    11.49326   -4.71865   -9.77051
       O    11.21276   -5.14097  -10.59262
      H1    11.41904   -4.62897  -11.33492
       H    11.43630   -2.77334  -11.63780
       O    12.10063   -3.07612  -12.25949
      H1    12.86433   -2.75565  -11.87886
       H     5.49122   -3.02872  -13.61170
       O     6.25635   -2.51985  -13.85993
      H1     5.83749   -1.69938  -14.21105
       H     7.49063   -3.13970   -8.41285
       O     6.96042   -3.72092   -8.92861
      H1     6.97018   -3.38349   -9.84434
       H    14.54905   -2.79656  -10.65033
       O    14.46150   -3.17368   -9.72252
      H1    14.01574   -4.01712   -9.83236
       H     8.46790    2.43591  -10.66568
       O     9.03426    2.39911  -11.44797
      H1     8.56537    3.04896  -12.09450
       H     9.06667   -8.12212   -7.81821
       O     8.30352   -7.53019   -7.89789
      H1     8.61010   -6.89914   -8.54926
       H     6.47476    1.28961   -9.75033
       O     7.13605    1.90537   -9.36178
      H1     6.67327    2.71115   -9.12734
       H    13.43071    0.00882  -13.27019
       O    13.09162    0.23751  -12.36389
      H1    12.85919    1.17328  -12.41959
       H    13.03842   -6.28303   -8.72366
       O    13.40575   -5.46338   -8.51747
      H1    12.67724   -4.95178   -8.02863
       H     9.57399    0.08785  -13.74330
       O     8.93694    0.78564  -13.62154
      H1     8.85688    1.14597  -12.75807
       H     9.74079   -2.27553   -9.66782
       O     9.88956   -2.21417  -10.61268
      H1     8.99328   -2.21035  -11.01276
       H     8.88673   -1.00407   -7.67582
       O     8.91499   -1.97688   -7.72978
      H1     8.64738   -2.22631   -6.85094
       H    11.36720   -4.32188   -6.70031
       O    11.35796   -3.94554   -7.61117
      H1    11.83284   -3.08844   -7.55836
       H    11.01115   -1.49905  -13.68553
       O    10.15157   -1.38770  -14.18282
      H1     9.66488   -2.17964  -14.31929
       H    13.91466   -6.33804  -11.63796
       O    13.11911   -6.80501  -11.68139
      H1    12.46183   -6.22805  -11.16719
       H    15.76593   -1.72057  -12.56481
       O    15.02275   -1.78051  -11.87718
      H1    14.67887   -0.90979  -11.88422
       H    12.14315    0.46453  -10.41183
       O    11.99803    0.80267   -9.52709
      H1    11.04957    0.94512   -9.56324
       H     6.70958   -1.42482  -11.13576
       O     7.16611   -2.24347  -11.29147
      H1     6.78163   -2.37179  -12.21157
       H     9.37416   -5.34645  -10.29672
       O     8.54487   -5.86822  -10.07012
      H1     7.89240   -5.15432   -9.83775

