78
frame 7 | Written by MDAnalysis XYZWriter (release 2.4.3)
       H     8.65229   16.44477    3.32088
       O     8.62650   17.38902    3.62644
      H1     8.47659   17.40523    4.58649
       H     7.79844   15.83642    8.30931
       O     7.44446   14.96581    8.04328
      H1     6.80510   15.24916    7.37947
       H     3.53041   19.18518    5.67280
       O     2.63680   18.94115    6.04615
      H1     2.37118   19.65143    6.68182
       H     6.76441   16.74554   12.51926
       O     5.87480   16.42832   12.45991
      H1     5.83092   16.09267   11.56532
       H     1.57106    9.37035    5.36951
       O     2.15034    9.45779    6.13466
      H1     2.15570   10.39132    6.34755
       H     2.49824   15.89765    6.44420
       O     3.11271   16.42791    6.95857
      H1     3.07149   17.32341    6.64256
       H     0.10426   18.77256    4.68655
       O     0.28434   17.92426    5.08331
      H1     1.18368   18.15215    5.45408
       H     3.70357   14.57926    2.65020
       O     3.28621   15.16589    2.04921
      H1     3.37537   16.08935    2.42143
       H     3.69272   12.06329    7.16954
       O     2.74346   12.06589    7.35748
      H1     2.83099   11.76250    8.31641
       H     1.48212   13.96182    5.34708
       O     1.48243   14.18692    6.27567
      H1     1.92336   13.39143    6.64858
       H     8.46338   18.24433    8.67586
       O     8.52193   17.68307    7.89374
      H1     8.32013   18.27151    7.14495
       H     4.71709   13.97821   10.80128
       O     4.54438   13.15353   11.32701
      H1     3.81862   12.64517   10.92210
       H     8.62504   14.74467    6.86903
       O     9.14345   14.68130    6.01583
      H1     8.48270   14.43269    5.35418
       H     6.55054   14.57025    3.39820
       O     7.15463   14.94481    4.01236
      H1     6.59117   15.08687    4.72490
       H     2.27182   16.22756    9.95935
       O     2.87707   16.79643    9.47576
      H1     3.01492   16.54364    8.51903
       H     2.12392   12.33306    2.87336
       O     2.37780   11.49196    2.53573
      H1     2.68921   11.65705    1.64312
       H     4.96989   10.83766    5.90332
       O     5.16720   11.78706    6.18335
      H1     5.92321   11.79198    6.74423
       H     6.19289   19.44986    3.12500
       O     6.99766   19.27500    2.60261
      H1     7.54747   18.70312    3.16567
       H    11.30257   16.99651    6.95136
       O    11.06474   16.56674    6.14414
      H1    10.27773   16.08100    6.29683
       H     4.49238   17.90943    3.45448
       O     3.61525   17.56206    3.14112
      H1     3.39579   18.09867    2.40649
       H     7.89617   11.68095    8.14584
       O     7.00767   11.35987    8.29482
      H1     6.76842   11.49668    9.20984
       H     6.10415   15.27522    9.27721
       O     5.46178   15.37187    9.99796
      H1     4.74491   15.98610    9.67857
       H     5.12329   13.97500    5.91718
       O     5.30255   14.84430    6.31781
      H1     4.45677   15.26835    6.54430
       H     0.49282   13.38189    3.69087
       O     1.29873   13.89099    3.55931
      H1     1.06749   14.72859    3.10298
       H     6.86615   19.64316    5.52996
       O     7.59157   19.08626    5.69968
      H1     8.35735   19.70164    5.52602
       H     5.23539   12.44311    2.64902
       O     4.77910   13.17346    3.09782
      H1     4.05256   12.79781    3.58850

