78
frame 0 | Written by MDAnalysis XYZWriter (release 2.4.3)
       H    18.18108    4.24168   -8.04821
       O    18.96182    3.74577   -7.77933
      H1    18.67435    2.96020   -7.33348
       H    14.36351    1.84676   -9.77855
       O    14.09597    1.65666   -8.85351
      H1    13.99052    0.70407   -8.98749
       H    11.48957   -3.06026   -6.27638
       O    11.78347   -2.56875   -5.47490
      H1    11.31653   -2.92311   -4.68508
       H    15.48560    3.84774   -2.97947
       O    16.26935    3.58093   -3.40666
      H1    16.31152    4.13422   -4.19167
       H    14.62940   -1.35833   -2.69186
       O    15.02171   -1.47009   -1.77301
      H1    15.61838   -0.72197   -1.61948
       H    15.99613    1.30719   -0.55395
       O    15.61698    1.48917   -1.39956
      H1    16.31822    1.88451   -1.97348
       H    14.23745   -0.59376  -10.78689
       O    13.80190   -0.97113   -9.97859
      H1    12.81664   -1.22619  -10.11840
       H    15.56395   -6.51611   -8.78340
       O    15.38361   -5.77558   -8.20674
      H1    15.19569   -5.05755   -8.80215
       H    17.02652    3.46945  -11.39905
       O    16.20857    3.75527  -10.89454
      H1    16.06544    4.70153  -11.07663
       H    17.10634   -5.03697   -7.54395
       O    18.07142   -4.81724   -7.64222
      H1    18.58490   -5.14107   -6.86195
       H    17.12464   -1.62536   -8.41173
       O    16.73664   -1.46838   -9.30461
      H1    16.18365   -2.24462   -9.50601
       H    12.03115    2.56040   -4.30131
       O    12.38010    1.72357   -3.97014
      H1    12.41851    1.82805   -2.95601
       H    16.09604   -2.31944   -5.39771
       O    16.94893   -2.37144   -4.95146
      H1    16.83090   -2.66592   -4.05519
       H    14.81376    2.74567  -11.75617
       O    14.07547    2.08715  -11.70660
      H1    13.28080    2.57321  -11.98977
       H    10.46700   -0.38760   -7.17212
       O     9.86741   -0.76935   -7.82076
      H1     9.78876   -1.70900   -7.58681
       H    14.56889   -3.27694   -5.63699
       O    14.68094   -2.77259   -6.42001
      H1    13.76424   -2.53464   -6.61119
       H    11.87098    0.96101   -5.83274
       O    11.72365    1.12014   -6.78802
      H1    12.49673    1.44406   -7.19260
       H    17.64489    1.49691   -5.75223
       O    18.53886    1.83630   -5.89316
      H1    19.04910    1.19273   -5.34725
       H    13.34980    0.19214   -4.07555
       O    13.98076   -0.49446   -4.43939
      H1    13.38009   -1.19089   -4.65782
       H    14.48796    3.69684   -6.79066
       O    15.37038    3.51809   -6.51618
      H1    15.37506    2.59872   -6.39245
       H    16.18113    4.25828   -7.91562
       O    16.64794    4.84621   -8.47756
      H1    16.55971    4.40834   -9.32941
       H    15.83884    0.01624   -7.13534
       O    15.96808    0.58276   -6.36022
      H1    15.39180    0.14884   -5.65930
       H    18.51024    0.06611  -11.68210
       O    18.84957    0.07227  -10.77550
      H1    18.12748   -0.40119  -10.29430
       H    12.18586    4.25179   -8.76015
       O    12.67442    3.91027   -8.01227
      H1    13.17973    3.17215   -8.41375
       H    18.22721   -2.34944   -6.36706
       O    18.71290   -2.25242   -7.18890
      H1    18.56130   -3.18827   -7.57822
       H    15.21414   -3.42748  -10.74813
       O    15.00713   -3.29946   -9.80370
      H1    14.41390   -2.53518   -9.86406

