78
frame 8 | Written by MDAnalysis XYZWriter (release 2.4.3)
       H   -18.04379    1.93671   -5.66835
       O   -17.78323    2.56045   -6.38308
      H1   -17.03225    2.11857   -6.83251
       H   -10.96688    7.50795   -5.19831
       O   -10.02307    7.42683   -4.95232
      H1   -10.01572    7.42969   -4.01964
       H   -13.07595    2.25458   -6.60837
       O   -12.35006    1.85838   -6.04449
      H1   -11.49894    2.08850   -6.33563
       H   -10.25624    4.27798   -6.78830
       O   -10.18742    4.49826   -7.73619
      H1    -9.44523    3.97970   -8.06612
       H   -10.69375    4.32686   -4.23483
       O    -9.89989    4.56878   -4.70983
      H1    -9.96057    5.51750   -4.77845
       H   -15.84431    5.52257   -2.76793
       O   -14.88272    5.50990   -2.64024
      H1   -14.55823    6.40717   -2.79273
       H    -7.38510    3.03118   -6.23759
       O    -7.50210    3.89268   -5.89294
      H1    -8.40559    3.94892   -5.50349
       H   -12.82738    1.99855  -10.19917
       O   -12.10445    1.83027   -9.62485
      H1   -11.78488    0.91650   -9.85670
       H   -16.42077    3.01430   -4.88412
       O   -16.00932    2.44071   -4.23141
      H1   -15.40497    3.02909   -3.79214
       H   -13.51013    6.91655   -7.18555
       O   -13.95699    6.36860   -7.86239
      H1   -13.21309    6.04995   -8.44532
       H   -13.13407    3.11498   -8.32530
       O   -13.83800    3.45156   -7.73514
      H1   -13.83478    4.42352   -7.82801
       H   -13.88719   -0.37312   -4.34903
       O   -14.70069   -0.42265   -4.82065
      H1   -14.97616    0.52874   -4.78630
       H   -11.66499    6.88567   -9.50071
       O   -11.86630    5.92755   -9.50072
      H1   -11.36969    5.49845   -8.78441
       H   -15.01010    4.04927    0.33451
       O   -14.59659    4.87609    0.04264
      H1   -14.67419    4.83460   -0.91358
       H   -15.14614    2.31510   -8.00760
       O   -15.53363    1.46466   -7.96663
      H1   -14.80050    0.83620   -7.79946
       H    -8.92766    1.06548   -2.96502
       O    -7.97966    1.09874   -2.95258
      H1    -7.74418    0.20177   -2.74445
       H   -10.50781    0.68416   -1.41576
       O   -10.91340    0.90868   -2.25335
      H1   -11.50738    1.66199   -2.05564
       H   -12.76028    0.03077   -7.47580
       O   -13.65300   -0.34403   -7.57386
      H1   -13.97412   -0.44479   -6.68122
       H   -10.61834   -1.16200   -4.48661
       O   -10.07913   -1.03497   -5.27105
      H1    -9.65268   -1.87348   -5.56734
       H   -10.69862    3.64112    0.87127
       O   -10.82836    3.31870   -0.05390
      H1   -11.77903    3.37320   -0.24077
       H   -12.66166    3.00256   -4.80282
       O   -12.51138    3.61724   -4.06588
      H1   -13.29895    4.21118   -4.10521
       H   -15.68863   -0.45306   -3.41482
       O   -16.25852   -0.57359   -2.62429
      H1   -16.51984    0.29336   -2.28652
       H   -12.00870   -0.34993   -2.95806
       O   -12.52355   -1.06850   -3.31933
      H1   -12.47664   -1.76991   -2.59432
       H    -9.94188    0.74886   -6.18806
       O    -9.48773    1.27009   -6.90367
      H1    -8.54040    1.37085   -6.59657
       H    -9.45310    5.89110   -2.47170
       O    -9.76394    6.77276   -2.39121
      H1   -10.34927    6.71101   -1.68092
       H   -12.30858    8.77788   -6.57137
       O   -12.57456    8.08789   -6.00221
      H1   -13.05741    8.38703   -5.20907

