78
frame 8 | Written by MDAnalysis XYZWriter (release 2.4.3)
       H     2.18310  -17.06680  -10.90393
       O     2.07641  -17.94784  -11.38211
      H1     2.04632  -17.69850  -12.31596
       H     7.13638   -9.09886  -10.33655
       O     6.73387   -9.05260   -9.42854
      H1     7.40550   -8.64341   -8.91677
       H     5.78349  -13.58951  -12.89172
       O     4.85259  -13.43039  -13.04591
      H1     4.80504  -12.51588  -13.37686
       H     2.88362   -9.86229   -9.33943
       O     2.65762   -9.00623   -9.71868
      H1     3.37729   -8.45689   -9.34885
       H     8.60761  -17.73472   -9.21252
       O     8.42331  -16.76926   -9.06212
      H1     7.63086  -16.68475   -9.57444
       H     5.06089  -13.89042   -8.70070
       O     5.41379  -13.73635   -7.78783
      H1     4.67028  -13.70753   -7.16806
       H     6.76036  -15.08552   -7.34407
       O     7.29848  -15.67314   -6.82386
      H1     7.56236  -16.25738   -7.47895
       H     4.17017  -11.37597   -5.65747
       O     3.42793  -11.97520   -5.78779
      H1     3.53481  -12.66381   -5.13927
       H     3.03038  -11.67409   -7.60954
       O     2.86997  -11.53002   -8.56339
      H1     1.99889  -11.85396   -8.71939
       H     8.62404  -11.93600   -7.49498
       O     9.54213  -12.24519   -7.23102
      H1     9.85637  -12.62078   -8.04760
       H    -1.82417  -14.08922   -9.57466
       O    -1.20275  -14.00783  -10.33875
      H1    -0.56344  -13.29941   -9.99763
       H     4.72214  -19.16136   -9.72695
       O     5.07284  -18.76446   -8.94905
      H1     4.27020  -18.39351   -8.58573
       H     0.74643  -11.56053  -10.44041
       O     0.35173  -11.99209   -9.72287
      H1    -0.13843  -11.28231   -9.28727
       H     4.05810  -15.11752  -15.73321
       O     3.57975  -15.18259  -14.85349
      H1     4.09212  -14.59988  -14.22947
       H     5.34557  -16.64908   -9.90454
       O     6.02080  -16.06417  -10.27952
      H1     5.72272  -15.17903  -10.25862
       H     4.54452  -10.23223  -12.88239
       O     4.13169  -10.84265  -13.54217
      H1     3.18007  -10.95107  -13.22239
       H     6.16850  -12.14427   -8.07972
       O     6.96518  -11.47182   -8.00011
      H1     6.76860  -10.82895   -8.70142
       H     3.65282   -8.49417  -11.48736
       O     4.39079   -8.53526  -12.18601
      H1     5.15198   -8.08958  -11.74024
       H     2.49015  -14.35466   -9.85248
       O     1.84668  -14.95645   -9.45070
      H1     0.98983  -14.81553   -9.90987
       H     4.07446  -12.63413   -9.80422
       O     4.23409  -13.43083  -10.30473
      H1     4.25450  -13.32130  -11.28907
       H     7.66465  -14.07259  -14.01993
       O     7.82185  -13.66691  -13.13662
      H1     8.05913  -14.36371  -12.49138
       H     1.79725  -14.89739   -7.24914
       O     1.62655  -14.70700   -6.31172
      H1     1.04643  -13.93320   -6.33100
       H     6.52359  -17.57236  -12.75589
       O     6.51813  -17.05695  -13.56318
      H1     5.56521  -17.06228  -13.73827
       H     0.31941  -12.98401  -14.51101
       O     0.31146  -13.15963  -13.56172
      H1    -0.60583  -12.84092  -13.37521
       H     6.39720  -10.78946   -6.23842
       O     5.74608  -10.35078   -5.58531
      H1     6.11634  -10.32363   -4.68302
       H     0.87416  -11.63021  -12.85964
       O     1.17390  -10.84430  -12.30576
      H1     0.67017  -10.04950  -12.61836

