78
frame 8 | Written by MDAnalysis XYZWriter (release 2.4.3)
       H     3.92590   -5.75891   -5.61267
       O     3.17692   -5.22629   -5.97912
      H1     3.30769   -5.36436   -6.93280
       H     4.74479   -1.40804   -2.33328
       O     4.41498   -2.05716   -2.93229
      H1     5.08668   -2.79449   -2.84368
       H    -0.79346   -2.45372   -3.91901
       O    -1.70692   -2.29593   -3.67463
      H1    -1.66102   -1.76303   -2.88084
       H    -2.40825   -4.20937   -4.38132
       O    -2.69933   -4.59634   -5.25925
      H1    -2.09994   -4.15075   -5.90451
       H     0.73182    0.77292   -5.58293
       O     0.54302    1.66909   -5.90545
      H1     0.02826    1.52968   -6.68764
       H    -0.43920   -6.07960   -5.22876
       O    -0.01949   -5.53898   -4.51958
      H1     0.84756   -5.90549   -4.33458
       H     0.16781   -3.84012   -9.98374
       O    -0.26393   -2.99248  -10.02013
      H1    -0.87236   -3.03329   -9.21081
       H     0.19313   -4.94079    0.70745
       O     0.00516   -4.24193    0.03058
      H1     0.83383   -3.97370   -0.36518
       H     0.55090   -4.14193   -5.35875
       O     0.59174   -3.19897   -5.77723
      H1     1.34330   -3.19091   -6.40366
       H     0.44343   -6.24236   -9.34115
       O     0.22443   -5.39111   -8.93489
      H1     0.85670   -5.21754   -8.27343
       H     1.98310   -1.75191   -0.79273
       O     2.57329   -2.53403   -0.90575
      H1     3.11794   -2.20214   -1.63434
       H     2.61070   -4.48381   -1.37624
       O     3.01778   -5.23411   -1.78861
      H1     2.39209   -5.71353   -2.33735
       H     4.57714   -3.66619   -9.15407
       O     3.81279   -4.24019   -9.09798
      H1     3.09356   -3.59854   -8.84768
       H     2.14299   -0.47865   -4.25265
       O     1.24957   -0.64654   -4.62579
      H1     1.29518   -1.58319   -4.96198
       H     2.80384    2.85017   -2.96843
       O     2.92325    1.96451   -2.56611
      H1     2.87505    2.21861   -1.65768
       H    -0.93073   -2.86446   -6.76911
       O    -1.65213   -3.02632   -7.38115
      H1    -2.44217   -2.43912   -7.23053
       H    -2.29598   -0.37716   -4.52192
       O    -2.48507    0.51866   -4.83226
      H1    -2.26576    1.21341   -4.22162
       H    -2.34147    0.59491   -1.98050
       O    -1.38968    0.26549   -2.09603
      H1    -1.13662    0.83560   -2.85692
       H     5.26487    0.69921   -4.73230
       O     4.42084    0.25924   -4.72190
      H1     4.03422    0.74778   -3.99614
       H     0.17572    2.28413   -2.73301
       O    -0.39024    2.31286   -3.51728
      H1     0.05998    2.05468   -4.29457
       H     3.60497    1.03580   -6.03139
       O     3.20789    1.55394   -6.81006
      H1     2.29337    1.73280   -6.60674
       H     4.88805   -3.37657   -5.60727
       O     5.03106   -2.39068   -5.63975
      H1     4.84320   -2.11250   -4.68635
       H     0.39666   -0.94498    0.37544
       O     0.69557   -0.42851   -0.40697
      H1    -0.09908   -0.14460   -0.92639
       H     4.14894   -1.57118   -7.23318
       O     3.81332   -0.96163   -7.91506
      H1     3.64723   -0.13964   -7.41501
       H    -2.00518    0.98796   -6.89178
       O    -1.72695    1.45051   -7.66270
      H1    -2.37598    2.18494   -7.61139
       H     2.35957   -1.89255   -7.97635
       O     1.77702   -2.66088   -8.15951
      H1     1.08174   -2.39320   -8.74008

