78
frame 8 | Written by MDAnalysis XYZWriter (release 2.4.3)
       H    -8.80774   13.60706   16.04849
       O    -8.64945   13.02117   16.84771
      H1    -9.39996   13.16388   17.36982
       H    -9.33692   10.20367   15.12274
       O    -9.82895   10.68876   15.72753
      H1    -9.14222   11.25238   16.08016
       H   -11.28619   13.36819   15.11498
       O   -11.70618   12.46182   15.21164
      H1   -10.94303   11.80629   15.40400
       H   -10.12375   19.00728   18.13911
       O   -10.55131   18.11460   18.09982
      H1    -9.96123   17.59524   17.52456
       H    -6.31631   15.95925   12.62498
       O    -6.37579   16.09645   13.59074
      H1    -6.86302   15.27619   13.94794
       H    -9.90160   16.31060   12.72829
       O    -9.85052   15.34868   12.54293
      H1   -10.72988   15.05543   12.75739
       H    -8.23093   16.72031   19.31389
       O    -7.63728   17.46166   19.12721
      H1    -7.01960   17.04439   18.50555
       H    -8.75008   14.60573   13.66246
       O    -7.98021   14.23793   14.16520
      H1    -7.76628   13.43869   13.70488
       H    -5.86804   12.22672   13.55554
       O    -6.67082   12.03327   13.08990
      H1    -6.54772   12.19245   12.11401
       H   -10.37473   15.81225   15.12422
       O   -11.16285   15.31258   15.28001
      H1   -11.83966   15.98047   15.55187
       H    -7.95795   17.52189   16.31802
       O    -8.87095   17.29150   15.94429
      H1    -8.91490   17.71947   15.05734
       H    -7.31576   14.70613   17.09500
       O    -6.54530   15.00400   17.58531
      H1    -6.23676   15.79054   17.05852
       H    -3.87985   17.42103   12.09757
       O    -3.07961   17.51589   12.67028
      H1    -2.97280   18.46392   12.77504
       H    -7.84135    8.65334   14.16885
       O    -8.28220    9.37663   13.70834
      H1    -7.66194   10.11659   13.61545
       H    -5.22193   15.82747   10.24828
       O    -5.57565   16.31448   10.96078
      H1    -5.71514   17.18875   10.61886
       H    -9.53145   18.56885   12.82117
       O   -10.11817   18.20910   13.53733
      H1   -10.83911   18.77713   13.63616
       H    -2.63427   17.14454   16.98061
       O    -3.23351   17.23202   16.23905
      H1    -3.33727   16.34514   15.82927
       H    -7.65534   19.17009   11.04323
       O    -8.21698   19.50329   11.70627
      H1    -8.64972   20.25896   11.33325
       H    -4.29752   13.54876   14.71786
       O    -4.39238   12.58473   14.80584
      H1    -4.79780   12.43830   15.63546
       H    -6.20713   16.88674   15.26501
       O    -6.12110   17.37674   16.11687
      H1    -5.21709   17.54290   16.26561
       H    -6.37781   13.40171    9.66143
       O    -6.31494   12.62434   10.29569
      H1    -6.56698   11.88403    9.67888
       H    -5.52665   19.58392   10.07535
       O    -6.20188   18.90401   10.01689
      H1    -6.30665   18.81125    9.05314
       H    -7.36675   16.05259   10.36938
       O    -8.23347   15.77358   10.04271
      H1    -8.77096   15.80039   10.82641
       H    -3.19059   15.16860   14.05779
       O    -4.02650   15.21810   14.58274
      H1    -4.62802   15.54860   13.94298
       H    -5.06641   12.04855   17.47471
       O    -5.85139   11.78083   16.98431
      H1    -6.53936   12.42376   17.20273
       H    -5.37702   14.27720   18.89792
       O    -4.84993   14.00206   19.67908
      H1    -5.48518   13.33951   20.01128

