78
frame 8 | Written by MDAnalysis XYZWriter (release 2.4.3)
       H   -16.63646   11.27779   11.83985
       O   -16.52724   10.32122   12.03921
      H1   -17.35457   10.12887   12.46456
       H   -11.28619   13.36819   15.11498
       O   -11.70618   12.46182   15.21164
      H1   -10.94303   11.80629   15.40400
       H   -18.27054   11.36103    6.14994
       O   -18.06949   10.99036    7.05561
      H1   -17.96274   11.69762    7.71844
       H   -13.05699    9.60741    7.02483
       O   -12.32158    9.37062    7.59927
      H1   -12.40688    8.48397    7.86768
       H   -14.85472    8.42392   10.58192
       O   -14.66543    9.28623   10.25650
      H1   -15.33893    9.81207   10.76857
       H   -16.02560    9.60621    8.86649
       O   -16.49240    9.16697    8.15513
      H1   -17.09716    9.75652    7.60599
       H    -9.90160   16.31060   12.72829
       O    -9.85052   15.34868   12.54293
      H1   -10.72988   15.05543   12.75739
       H   -12.88183   16.61006   10.06470
       O   -13.63636   17.21737    9.96286
      H1   -13.73218   17.59949   10.87364
       H    -8.40901    9.07681   10.36371
       O    -8.44088    9.92715   10.85028
      H1    -8.28006    9.66936   11.76342
       H   -11.11802    9.65128    6.06957
       O   -10.35455    9.26519    5.63923
      H1   -10.48316    9.52899    4.71217
       H   -13.84295   14.78380   12.96116
       O   -14.65215   15.21089   12.76996
      H1   -15.20538   14.96876   13.56458
       H   -14.12944   10.86803   14.14896
       O   -14.73450   10.17513   14.04249
      H1   -15.16780   10.29235   13.18236
       H   -12.12663   12.96595   13.03342
       O   -12.13535   13.84840   12.58879
      H1   -11.85503   13.64721   11.63407
       H   -11.92751   14.19819    9.04370
       O   -11.31145   14.37432    9.75079
      H1   -10.63836   13.65066    9.54529
       H   -11.80346   12.58531    5.54569
       O   -11.07913   13.07720    5.86472
      H1   -10.42029   12.43459    6.15411
       H   -18.58693   13.30381    9.21604
       O   -17.86019   13.22171    8.56132
      H1   -18.15187   13.78044    7.81437
       H   -12.96624   17.48989    8.35074
       O   -12.91962   17.91520    7.48830
      H1   -12.38152   17.29313    6.96084
       H   -15.49496   14.04150   11.72799
       O   -16.30456   13.49170   11.43460
      H1   -16.38860   13.71894   10.49788
       H   -12.18409    8.71997   10.67283
       O   -11.71931    8.05375   10.09781
      H1   -10.86336    7.93736   10.58545
       H   -14.65324   13.48673    5.59473
       O   -15.22629   12.93415    6.17097
      H1   -15.03095   11.99409    6.02295
       H   -14.81062    9.02415    5.53231
       O   -14.52145    9.92192    5.72453
      H1   -13.86968   10.17898    5.03286
       H   -15.26797   15.84313    8.40586
       O   -15.69413   15.62635    9.25723
      H1   -15.17019   16.06276    9.95069
       H    -9.54360   11.63626    8.13056
       O    -9.11358   11.67716    7.21417
      H1    -9.41202   10.85663    6.86133
       H    -9.33053   11.31618   10.21260
       O    -9.95545   11.98148    9.79371
      H1   -10.80752   11.60227    9.93979
       H   -13.04229   12.29692    9.95728
       O   -12.74518   11.52197   10.42331
      H1   -13.08491   10.81937    9.81357
       H   -14.48594   14.02850    8.88197
       O   -13.74404   13.57602    8.51039
      H1   -14.09740   13.22735    7.67173

