78
frame 8 | Written by MDAnalysis XYZWriter (release 2.4.3)
       H    -7.93314  -16.41018  -10.83425
       O    -8.57444  -17.12140  -10.68338
      H1    -8.11531  -17.92690  -10.89613
       H    -3.60744  -15.66906  -11.90256
       O    -4.53837  -15.39147  -11.69023
      H1    -4.57186  -14.41539  -11.88811
       H     2.18310  -17.06680  -10.90393
       O     2.07641  -17.94784  -11.38211
      H1     2.04632  -17.69850  -12.31596
       H    -4.26046  -19.76915  -13.87543
       O    -4.89720  -19.10377  -14.08974
      H1    -5.62799  -19.25696  -13.46298
       H    -5.45609  -18.96928  -16.02389
       O    -5.21140  -18.84093  -16.97470
      H1    -5.99423  -19.05116  -17.48586
       H    -7.39128  -16.52266  -15.25055
       O    -7.87943  -16.56458  -14.37927
      H1    -7.48338  -17.36434  -13.90617
       H     0.74888  -19.10502  -16.27940
       O     1.66204  -19.19132  -15.92095
      H1     1.48736  -19.83385  -15.22112
       H    -4.05916  -17.51191  -14.09750
       O    -3.72891  -16.59138  -14.01714
      H1    -4.30079  -16.22742  -13.36356
       H    -5.31529  -16.94871  -16.40129
       O    -6.07032  -16.29902  -16.55040
      H1    -5.62708  -15.49835  -16.80384
       H    -5.29043  -15.90477   -7.28909
       O    -5.97469  -16.34132   -7.85046
      H1    -6.59449  -15.64840   -8.10105
       H    -1.57477  -16.62242  -12.52897
       O    -1.92896  -16.94121  -11.64040
      H1    -1.16651  -17.03277  -10.99032
       H     0.75393  -15.71884  -15.57271
       O     1.22812  -15.26364  -16.27323
      H1     2.06958  -14.99629  -15.91313
       H     1.67921  -18.12556  -14.70730
       O     1.74025  -17.45465  -13.98414
      H1     2.44652  -16.83122  -14.14983
       H    -8.41850  -18.78691   -8.57980
       O    -7.63271  -19.38526   -8.64427
      H1    -7.59145  -19.95557   -9.38893
       H    -6.17088  -18.86647  -11.43656
       O    -6.96332  -19.00604  -12.05691
      H1    -7.31208  -19.94799  -12.10432
       H    -3.54557  -18.41072  -18.26949
       O    -2.88416  -18.80552  -18.84776
      H1    -2.61229  -18.11124  -19.49075
       H    -2.68895  -13.31157  -16.91606
       O    -3.42194  -13.93313  -16.85058
      H1    -3.04793  -14.78333  -16.63302
       H    -1.82417  -14.08922   -9.57466
       O    -1.20275  -14.00783  -10.33875
      H1    -0.56344  -13.29941   -9.99763
       H     0.29260  -16.43515  -13.55025
       O    -0.37193  -15.76257  -13.71864
      H1     0.08883  -14.90395  -13.51558
       H    -2.16542  -17.24329  -16.95457
       O    -2.86869  -16.62758  -16.68733
      H1    -2.74550  -16.58356  -15.67264
       H     0.45545  -18.36861  -10.20819
       O    -0.21765  -18.00495   -9.63629
      H1    -0.71094  -18.81723   -9.49870
       H    -2.81273  -20.26089  -12.32108
       O    -2.06436  -19.68074  -12.09524
      H1    -2.39230  -18.77866  -11.84469
       H    -1.15621  -19.00189  -16.18459
       O    -0.73000  -18.40409  -16.86768
      H1    -1.07083  -18.79865  -17.67511
       H     0.56229  -16.21591   -6.65035
       O    -0.24169  -16.75468   -6.87892
      H1    -0.25283  -17.01439   -7.79961
       H    -4.54310  -17.34883  -10.38594
       O    -4.99294  -18.06232   -9.85459
      H1    -5.50176  -17.71605   -9.09550
       H    -4.19141  -19.10083   -8.63681
       O    -3.69185  -19.87933   -8.34425
      H1    -3.44982  -19.72903   -7.42469

