78
frame 8 | Written by MDAnalysis XYZWriter (release 2.4.3)
       H    18.70828   17.84658  -16.93143
       O    19.37222   17.23555  -17.30344
      H1    19.15386   17.26924  -18.23111
       H    12.40196   12.75464  -16.67594
       O    12.92154   13.56183  -16.68325
      H1    13.40277   13.60292  -15.88948
       H    16.93411   14.38694  -16.33311
       O    16.78030   14.48098  -15.32035
      H1    16.26617   13.75097  -15.02929
       H    19.46833   16.86988  -11.55941
       O    19.27106   17.77299  -11.20970
      H1    19.43893   17.76714  -10.27996
       H    13.10041   11.94591  -11.19593
       O    13.62783   12.57802  -11.67801
      H1    13.06758   13.37969  -11.63988
       H    15.28243   12.01967  -12.01691
       O    16.05084   11.72962  -12.51752
      H1    16.81192   12.21963  -12.19641
       H    16.62316   16.36414   -8.81493
       O    16.96478   15.57727   -8.36906
      H1    17.76515   15.33481   -8.88255
       H    16.65219   15.97798  -14.02085
       O    16.21557   16.79670  -13.94386
      H1    15.56513   16.73921  -14.68662
       H    13.65587   17.23886  -10.85457
       O    13.39577   16.76432  -10.05438
      H1    13.16029   15.83481  -10.32791
       H    18.27075   13.39506  -15.01167
       O    18.90014   12.77059  -14.62344
      H1    18.67801   11.89601  -15.02071
       H    17.66977   18.24442  -11.48610
       O    16.79910   18.50874  -11.86502
      H1    16.69647   17.87262  -12.63408
       H    16.74352   10.61425  -17.18226
       O    16.54248   11.52898  -17.22185
      H1    17.32217   11.82487  -17.78517
       H    15.47947   11.66865  -15.52458
       O    15.18705   12.33283  -14.89726
      H1    15.59067   11.95961  -14.12760
       H    11.26983   15.90923  -17.40625
       O    10.45829   15.39534  -17.55266
      H1     9.80177   16.00835  -17.13472
       H    13.45987   15.37648  -17.87609
       O    13.21430   16.30875  -17.74503
      H1    13.55990   16.85306  -18.47929
       H    13.02685   17.04784  -13.75577
       O    12.43752   16.85810  -12.98284
      H1    11.58203   16.60762  -13.47034
       H    18.28754   12.05204  -10.27452
       O    18.16226   12.79713  -10.82998
      H1    18.61882   13.51716  -10.32623
       H    16.93126   17.86070  -14.98410
       O    17.23193   18.42349  -15.73635
      H1    17.86356   19.05596  -15.33198
       H    14.74572   17.68058   -9.48724
       O    15.71915   17.93320   -9.45163
      H1    16.03624   18.05451  -10.35497
       H    19.48396   15.12786  -10.53598
       O    19.27806   15.14014   -9.59291
      H1    19.69588   15.93787   -9.22912
       H    11.95616   19.69486  -13.49661
       O    12.36771   19.57303  -12.64215
      H1    12.36962   18.59373  -12.57902
       H    13.84306   12.95290  -18.04648
       O    14.16243   12.66723  -18.91190
      H1    14.98476   12.19192  -18.70304
       H    11.30299   13.86005  -11.15658
       O    11.86722   14.59301  -10.86347
      H1    11.94290   15.14849  -11.68587
       H    13.98363   18.49263  -15.58953
       O    13.83310   17.50855  -15.39278
      H1    13.50075   17.18601  -16.26869
       H    17.09388   19.92691   -7.15742
       O    16.17114   19.91557   -7.45654
      H1    15.96574   19.31047   -8.19299
       H    15.95632   14.84535  -18.24996
       O    16.83255   14.74946  -17.90000
      H1    17.42455   14.89792  -18.63880

