78
frame 7 | Written by MDAnalysis XYZWriter (release 2.4.3)
       H     2.60508  -16.52944   -9.71590
       O     2.72687  -17.39688  -10.10653
      H1     2.46505  -17.33418  -11.11063
       H     1.10588  -12.02368   -6.24648
       O     0.69712  -12.71771   -6.74503
      H1    -0.19507  -12.78804   -6.38369
       H    -0.18350   -8.68974   -2.42280
       O     0.49680   -9.12718   -2.92981
      H1     0.24647   -9.16442   -3.81231
       H     2.76967  -10.88719   -4.83014
       O     1.78578  -10.88282   -5.00454
      H1     1.37734  -11.46118   -4.36312
       H     3.65024  -14.71415   -2.83252
       O     3.13900  -14.15661   -3.43158
      H1     2.39121  -14.70596   -3.80846
       H     2.58533   -9.85028   -9.38249
       O     2.46860   -8.94678   -9.68156
      H1     3.27682   -8.47225   -9.39640
       H    -1.83180  -14.54084   -6.03479
       O    -2.17161  -13.62451   -5.85859
      H1    -2.99868  -13.76740   -5.30729
       H    -1.01466  -13.20414   -4.37388
       O    -0.35473  -13.20082   -3.65150
      H1    -0.85150  -13.50762   -2.86097
       H     5.47768  -16.59835   -6.42601
       O     4.71288  -17.17432   -6.27244
      H1     4.01323  -16.45873   -6.24991
       H     5.62442  -12.93815   -8.36754
       O     6.06220  -12.98326   -7.44987
      H1     5.42759  -12.87592   -6.71572
       H     5.13458  -11.38726   -5.19515
       O     4.64669  -12.19351   -5.26929
      H1     4.71480  -12.87779   -4.57322
       H     3.24443  -11.52566   -7.97415
       O     3.02276  -11.36555   -8.92687
      H1     2.16249  -11.80216   -9.02795
       H    -3.75443  -14.64518   -6.97800
       O    -4.47910  -15.33503   -6.84098
      H1    -5.18224  -14.79965   -6.45926
       H    -2.56008  -12.71536   -9.90728
       O    -1.91559  -12.98639  -10.55920
      H1    -1.06541  -12.97427  -10.13893
       H     2.01866   -9.23183   -7.79984
       O     1.64964   -8.88362   -7.00952
      H1     1.53077   -9.63433   -6.45728
       H     0.54733  -11.69110  -10.35689
       O     0.69367  -12.44721   -9.75858
      H1     0.19762  -12.27549   -8.89165
       H    -2.80568  -16.31769   -6.41464
       O    -2.11127  -16.47659   -5.81065
      H1    -1.45553  -16.91871   -6.31766
       H    -3.44769  -11.41126   -8.43782
       O    -4.07544  -12.04267   -8.79950
      H1    -4.91887  -11.58716   -8.64193
       H    -2.06315   -9.89619   -8.62197
       O    -1.60219  -10.54615   -8.13605
      H1    -1.80656  -10.28921   -7.17180
       H     0.01628  -16.49141   -4.03633
       O     0.44391  -15.67742   -4.25039
      H1     0.01617  -15.08587   -3.71393
       H     0.72385  -16.70186   -6.81324
       O     0.02640  -17.29590   -7.13469
      H1    -0.07007  -17.33905   -8.07598
       H     3.54432  -13.72936   -9.66804
       O     2.83540  -14.35215   -9.40990
      H1     2.01837  -13.85422   -9.65998
       H     4.34718  -12.18356   -9.84519
       O     5.11318  -12.84955   -9.87333
      H1     5.11443  -13.07641  -10.83285
       H     2.59772  -14.81682   -7.70656
       O     2.31490  -15.22265   -6.88907
      H1     1.75837  -14.51076   -6.47698
       H     1.77547  -11.85172   -1.29156
       O     2.68639  -12.18024   -1.26303
      H1     2.79874  -12.72178   -2.02613
       H    -1.86276   -9.82311   -4.37418
       O    -1.47398   -9.46066   -5.20426
      H1    -2.27939   -9.08389   -5.62713

