78
frame 9 | Written by MDAnalysis XYZWriter (release 2.4.3)
       H   -14.18597   14.84087    4.07719
       O   -14.17493   14.99530    5.00265
      H1   -14.90602   15.51147    5.34181
       H   -16.11538   13.16360    5.19493
       O   -16.61075   13.49534    4.44970
      H1   -16.04347   13.07018    3.76354
       H   -12.99147   17.37468   -0.56443
       O   -13.46842   18.02458    0.02694
      H1   -12.94396   18.83880   -0.07668
       H   -17.78547   14.53499    3.53351
       O   -18.50635   15.04778    3.15458
      H1   -19.31137   14.90699    3.66831
       H   -13.44030   18.26414    3.58198
       O   -14.16272   18.69067    4.14790
      H1   -14.10349   18.37526    5.04376
       H   -17.31022   17.15500    9.86597
       O   -18.11695   17.70529    9.99560
      H1   -18.88264   17.31889    9.45610
       H   -17.43634   18.49027    1.21132
       O   -17.26009   19.29436    1.64683
      H1   -18.02573   19.84275    1.70098
       H   -12.81347   17.48656    1.82644
       O   -12.27547   17.64677    2.62620
      H1   -11.82636   16.82513    2.88342
       H   -15.73960   17.43048   -2.63656
       O   -15.99332   16.56146   -2.97695
      H1   -16.42673   16.82796   -3.80693
       H   -19.12671   16.36346    1.52069
       O   -18.66338   16.88578    0.82396
      H1   -19.38829   17.39406    0.41937
       H   -16.62184   17.85078    3.87968
       O   -17.45034   17.51287    4.29173
      H1   -17.74906   16.91798    3.56198
       H   -16.85082   14.78838    0.01870
       O   -16.65800   14.23652    0.76039
      H1   -17.48506   14.19197    1.18632
       H   -16.37960   19.41335   -1.62233
       O   -15.48431   19.16846   -1.77289
      H1   -14.99956   18.89856   -1.01766
       H   -15.49637   13.29369    1.91692
       O   -15.09570   12.74863    2.58468
      H1   -14.74443   11.99669    2.12518
       H   -15.63064   16.80617    6.63623
       O   -16.16486   15.98963    6.49781
      H1   -16.50566   16.18164    5.59084
       H   -15.21813   16.91825    1.84126
       O   -14.68865   16.16224    2.10743
      H1   -14.90689   15.52781    1.42835
       H   -17.89973   12.28455    5.19747
       O   -18.59327   11.65062    5.47152
      H1   -18.69072   11.18094    4.62665
       H   -18.59897   13.69375   -1.56050
       O   -18.86200   12.72823   -1.34568
      H1   -18.71546   12.22670   -2.23274
       H   -18.11343   13.60270    9.86538
       O   -17.68859   13.12111    9.13293
      H1   -18.15287   13.47663    8.34220
       H   -14.17246   17.99561    8.00925
       O   -14.12380   18.20095    7.03418
      H1   -13.44157   17.57053    6.69516
       H   -14.47805   13.34248    5.82585
       O   -14.81691   12.67569    6.42625
      H1   -14.90169   11.90514    5.81316
       H   -16.58168   14.98679    8.68974
       O   -16.36931   15.62501    9.38610
      H1   -15.44018   15.85869    9.28304
       H   -11.91429   16.43262    6.89985
       O   -12.25428   16.69322    5.96979
      H1   -12.71392   15.89462    5.69940
       H   -18.02846   15.26793    6.78818
       O   -18.88812   14.87441    7.06055
      H1   -19.45958   15.69633    7.06098
       H   -17.48921   15.72102   -2.22767
       O   -17.97702   15.34110   -1.48495
      H1   -18.31616   16.10953   -1.05325
       H   -16.67524   10.79436   -1.10714
       O   -16.21947   11.59964   -1.32825
      H1   -16.78458   12.28302   -0.99641

