78
frame 0 | Written by MDAnalysis XYZWriter (release 2.4.3)
       H     9.59911    6.38662   10.45453
       O     9.68464    7.30174   10.17821
      H1     8.87649    7.80380   10.50448
       H     4.98656   11.77060   18.47242
       O     5.77006   11.36696   18.07269
      H1     5.98444   10.56027   18.55588
       H     6.90092   12.40470   17.05649
       O     7.47168   13.06508   16.66278
      H1     8.25667   12.52809   16.41986
       H    10.93400    6.59155   17.34240
       O    10.57839    7.50534   17.31347
      H1    11.19037    8.12175   17.61496
       H     6.46742    4.70499   17.95214
       O     6.37948    5.53375   18.39909
      H1     5.88876    6.16156   17.80208
       H     4.85110   13.80754   14.23763
       O     5.61674   13.27890   13.89164
      H1     5.43848   13.01815   12.88800
       H    10.45060   11.56607   16.63336
       O     9.75873   10.91024   16.90347
      H1     9.68974   10.32775   16.15768
       H    10.94046    9.14672   13.73583
       O    11.32444    9.29454   12.87373
      H1    11.19773    8.43652   12.41696
       H     3.84118    6.42862   17.04926
       O     4.58478    7.03610   16.92766
      H1     4.14785    7.93129   16.81231
       H     9.65488    8.20643   15.77768
       O     9.42608    8.76472   15.05685
      H1     8.61439    8.47831   14.61312
       H     5.47215    6.21616   15.28256
       O     5.90495    5.79640   14.52049
      H1     5.24011    5.67122   13.84064
       H     9.98163   13.86970   14.28244
       O     9.22941   13.56408   13.70479
      H1     8.42740   13.60029   14.22460
       H     4.03639    9.89419   16.15894
       O     3.77455    9.68750   17.05084
      H1     4.23286   10.30639   17.64655
       H     5.06989   13.62584   10.82745
       O     5.30452   12.80635   11.25132
      H1     4.49848   12.27594   11.11953
       H     8.86770    3.96831   14.25056
       O     7.89025    3.99623   14.04380
      H1     7.47541    4.80368   14.39855
       H     7.14008   11.76558   10.83866
       O     7.64662   10.94118   10.89937
      H1     8.51463   11.24808   11.05119
       H     2.39161    9.34733   13.03004
       O     2.71593   10.25444   13.09791
      H1     1.88571   10.83780   13.16348
       H     9.85095   12.11575   12.30956
       O    10.25722   11.51788   11.70490
      H1    10.50385   10.69438   12.27583
       H     4.32349    4.33512   12.01170
       O     4.04651    5.08281   12.55584
      H1     3.52189    4.74412   13.30870
       H     4.25532    6.80059   11.91379
       O     4.43126    7.65224   11.39921
      H1     5.39366    7.65640   11.28428
       H     7.88662    6.45920   18.65838
       O     8.47550    7.07099   19.08699
      H1     9.20722    7.17739   18.47400
       H     1.65666    7.18548   13.88268
       O     1.14294    7.92703   13.43867
      H1     0.50707    8.25776   14.09188
       H     7.12224    8.37982   12.08997
       O     6.95215    8.33017   11.14852
      H1     6.94412    9.25349   11.03084
       H     4.50347   10.22520   13.73134
       O     5.33824   10.10010   14.28266
      H1     5.59198   11.02443   14.50830
       H     2.47250   12.34633   10.72089
       O     2.88401   11.44960   10.57646
      H1     2.88676   10.97839   11.46712
       H     6.59966    7.45687   14.30699
       O     7.07906    8.22227   14.00758
      H1     6.53272    8.97728   14.25390

