78
frame 9 | Written by MDAnalysis XYZWriter (release 2.4.3)
       H    -1.60744   17.35510   -1.91119
       O    -1.97313   17.19853   -1.01225
      H1    -1.70383   18.00036   -0.51244
       H     1.03343   14.12891   -2.22699
       O     0.58022   13.35439   -2.65029
      H1    -0.32356   13.62965   -2.74917
       H    -2.53013   12.68852    3.09237
       O    -2.82625   13.59586    3.09167
      H1    -3.77516   13.49490    2.84093
       H     2.74667   17.63090   -3.76593
       O     2.55139   17.56820   -2.85307
      H1     1.69617   18.01916   -2.89637
       H     2.81104   18.09182    0.50026
       O     1.94940   17.92546    0.85740
      H1     1.38292   17.92601    0.09680
       H    -6.68143   17.91969    4.15104
       O    -6.26656   17.06629    4.07976
      H1    -6.32764   16.80281    3.16672
       H    -1.85233   18.58665   -6.18601
       O    -1.01363   18.27667   -5.82431
      H1    -0.29678   18.37888   -6.48609
       H    -2.69313   19.32034    3.95050
       O    -2.57242   18.44672    3.57992
      H1    -3.44585   18.08037    3.32515
       H    -1.18437   15.67702   -3.73431
       O    -1.65028   16.50744   -3.81327
      H1    -1.37223   16.91391   -4.68195
       H    -6.25197   18.09171   -3.99263
       O    -7.06828   18.50142   -3.81232
      H1    -6.90710   19.05916   -3.07838
       H     2.09862   16.16736   -1.44095
       O     1.80254   15.27416   -1.24306
      H1     1.19783   15.34721   -0.54206
       H    -1.31619   18.07352    4.99207
       O    -0.71222   17.64119    5.63379
      H1     0.00797   18.28986    5.41256
       H    -7.05557   15.74873   -2.90012
       O    -6.44035   15.48841   -2.20134
      H1    -6.48220   14.51496   -2.13250
       H    -3.46036   16.81478   -4.29360
       O    -4.32046   17.33695   -4.27223
      H1    -4.44351   17.45057   -3.30674
       H    -1.66864   14.87431    3.42353
       O    -0.85650   15.39382    3.40787
      H1    -0.95784   15.95063    4.13762
       H     5.11225   18.97750   -1.72105
       O     4.31464   19.59719   -1.75530
      H1     3.65299   18.97613   -2.18503
       H    -0.29860   18.83374   -4.11950
       O     0.21293   19.07006   -3.33040
      H1    -0.31897   19.75274   -2.86846
       H    -6.32728   13.07816    2.15163
       O    -5.51078   13.58681    1.86858
      H1    -5.76832   14.50747    1.93430
       H    -0.38715   15.85197    1.67311
       O    -0.19340   15.66415    0.73114
      H1    -0.83973   16.04237    0.12748
       H    -5.23868   18.58830   -0.11309
       O    -5.71563   19.17503    0.48319
      H1    -5.11973   19.62045    1.12969
       H    -0.74354   19.83341    0.72376
       O    -1.56612   19.48004    0.44306
      H1    -2.24788   19.41489    1.15109
       H    -7.19744   16.26489    1.10562
       O    -6.28114   16.51397    1.37682
      H1    -6.02993   17.40283    1.18846
       H     1.95316   16.62206    2.45353
       O     2.43649   16.57566    3.33384
      H1     1.91277   16.08063    3.95184
       H    -3.71499   17.19079   -1.22768
       O    -4.53405   17.62622   -1.54706
      H1    -5.27685   17.03774   -1.41478
       H    -3.73486   19.60249   -6.15074
       O    -3.85142   18.69201   -6.48865
      H1    -4.06522   18.27021   -5.64559
       H    -2.89500   13.03267   -3.72051
       O    -1.93127   13.12199   -3.92435
      H1    -1.58518   12.23486   -4.00348

