78
frame 9 | Written by MDAnalysis XYZWriter (release 2.4.3)
       H    -4.76678   -3.07210  -11.80925
       O    -4.11796   -3.55754  -11.29535
      H1    -3.26950   -3.19237  -11.56189
       H     3.70597   -4.42809   -4.95695
       O     4.56202   -4.72316   -5.33804
      H1     4.28132   -5.54911   -5.80629
       H    -4.66907   -2.41065   -6.28206
       O    -4.26943   -1.79703   -6.82948
      H1    -4.72993   -1.94208   -7.66453
       H    -0.53698   -2.69849   -4.43797
       O    -1.32231   -2.42747   -3.94797
      H1    -1.11066   -1.51846   -3.68478
       H    -3.87980   -0.03137   -6.18550
       O    -4.04588    0.84740   -5.86016
      H1    -3.34477    1.08843   -5.22080
       H    -2.47205   -4.87884   -4.05464
       O    -2.40768   -5.39153   -4.85559
      H1    -2.10617   -4.74751   -5.55362
       H     0.56273    1.32014   -5.52949
       O     0.66143    2.27538   -5.52937
      H1    -0.14393    2.55472   -5.99691
       H    -4.25275   -2.98694   -2.04405
       O    -3.71529   -3.54289   -2.60933
      H1    -3.05382   -2.92749   -3.06238
       H     1.60409   -5.44941   -4.91615
       O     1.96852   -4.70122   -4.45238
      H1     2.16955   -5.13136   -3.60431
       H    -1.19057   -2.85467   -8.69030
       O    -0.77821   -2.08167   -9.20255
      H1    -1.20469   -1.26777   -8.90621
       H    -1.61829   -6.33461   -9.26550
       O    -2.44742   -6.76468   -9.60221
      H1    -3.18280   -6.12854   -9.67382
       H     1.10849   -3.54918   -5.65636
       O     0.50962   -2.91674   -6.16665
      H1     0.76584   -3.03577   -7.10193
       H     0.95099   -5.48456   -8.94987
       O     0.06322   -5.66128   -8.68231
      H1     0.18505   -5.95452   -7.73682
       H     5.34388   -3.10215   -8.39341
       O     4.48182   -3.45462   -8.12531
      H1     3.77269   -2.84299   -8.47691
       H     2.27149   -1.00250   -4.24244
       O     1.45946   -0.71738   -4.75807
      H1     1.19972   -1.51398   -5.28035
       H    -1.16515   -3.11271   -6.77742
       O    -1.89885   -3.43282   -7.32927
      H1    -2.78933   -3.18199   -7.01491
       H    -2.46486    0.27929   -2.21035
       O    -1.53273    0.11129   -2.35818
      H1    -1.01640    0.91263   -2.21721
       H    -5.80712   -5.30789   -8.42443
       O    -6.05424   -5.27674   -7.45671
      H1    -5.56492   -6.00985   -7.03373
       H    -2.42714    0.51811   -8.21162
       O    -2.39432    0.02213   -9.04044
      H1    -3.23157   -0.47033   -9.17591
       H    -5.18925   -7.45959   -5.51779
       O    -4.41210   -7.18130   -5.98359
      H1    -3.85536   -6.61664   -5.41547
       H    -1.31572   -2.51663  -10.79918
       O    -1.60956   -2.58695  -11.74127
      H1    -1.26688   -3.47321  -12.14826
       H    -5.54452   -0.98155  -10.25719
       O    -4.88018   -1.30272   -9.65467
      H1    -4.52402   -2.10558  -10.06464
       H     0.60731   -7.16092   -5.98037
       O     0.36360   -6.26382   -5.98122
      H1    -0.43067   -6.11834   -5.47537
       H    -2.18093    2.09785   -6.77463
       O    -1.42550    2.26132   -7.36494
      H1    -1.59233    3.09782   -7.65163
       H     2.56233   -1.30148   -8.27371
       O     2.24641   -2.21092   -8.52184
      H1     1.84243   -2.10786   -9.38131
       H    -5.64976   -4.44858   -5.38377
       O    -5.43999   -3.66974   -4.86634
      H1    -4.76142   -3.97891   -4.25851

