78
frame 9 | Written by MDAnalysis XYZWriter (release 2.4.3)
       H    -6.59910   -8.21602    4.30605
       O    -6.33513   -7.63418    5.07476
      H1    -7.18691   -7.51902    5.53439
       H    -2.72760   -8.42761   -0.43350
       O    -3.25703   -8.99144    0.24013
      H1    -3.04642   -8.50703    1.07551
       H    -6.67485   -4.29993    5.84976
       O    -7.57006   -3.90023    5.71530
      H1    -7.41151   -3.07405    5.25683
       H    -9.61234   -2.27103    2.08423
       O    -8.73077   -1.93231    2.27885
      H1    -8.83270   -0.98554    2.57188
       H    -9.78001   -7.51010    2.08418
       O   -10.02639   -8.39437    2.41987
      H1   -10.46259   -8.93638    1.74197
       H   -10.21534   -5.32614    8.27350
       O    -9.63933   -4.65202    7.92645
      H1    -9.28956   -4.98876    7.10917
       H    -5.15203   -6.92504    3.96151
       O    -4.26605   -6.49231    3.77118
      H1    -4.45146   -5.99374    2.96762
       H    -8.38946   -7.09335    0.41480
       O    -8.66537   -6.50915    1.11782
      H1    -7.90108   -6.25150    1.71398
       H    -6.51924   -0.84366    4.19321
       O    -6.58353   -1.76457    3.93840
      H1    -7.25447   -1.81366    3.21752
       H    -9.21777  -10.01043    5.08819
       O    -9.52041   -9.09806    5.09571
      H1    -9.62684   -8.78940    4.11653
       H    -4.61549   -1.31369   -0.70919
       O    -4.78450   -2.12432   -0.24046
      H1    -5.76418   -2.09876   -0.13979
       H    -8.14503   -7.74683   -1.50567
       O    -7.51687   -8.27821   -1.01309
      H1    -6.70607   -8.27261   -1.50361
       H    -3.83383   -5.42779   -1.09201
       O    -4.76208   -5.69132   -0.93765
      H1    -5.33815   -4.97408   -1.28378
       H   -11.20284   -3.50515    2.02209
       O   -11.20763   -2.61851    1.64984
      H1   -11.95835   -2.11368    1.91835
       H    -3.85900   -9.06169    6.50672
       O    -4.79169   -9.12360    6.76931
      H1    -5.37138   -8.66575    6.14421
       H   -11.86324   -6.29251    1.27637
       O   -11.39303   -5.50492    1.63846
      H1   -10.48109   -5.68643    1.39352
       H    -7.60013   -2.79384   -0.53628
       O    -7.48391   -1.79227   -0.37841
      H1    -7.99356   -1.72929    0.41492
       H    -3.08492   -1.98004    6.03445
       O    -3.83961   -2.30720    5.46543
      H1    -4.47754   -1.59474    5.30850
       H    -6.51646   -5.19140    2.81115
       O    -7.32991   -5.41503    3.21649
      H1    -7.40458   -4.84511    3.97060
       H    -1.53382   -7.22444    2.95430
       O    -2.11074   -7.97779    3.20988
      H1    -2.96337   -7.51092    3.25139
       H    -4.73964   -3.88927    5.79927
       O    -5.12333   -4.74653    6.04361
      H1    -5.03890   -5.44280    5.36786
       H    -7.72902   -4.85425   -1.92414
       O    -7.42719   -4.55317   -1.06223
      H1    -7.84641   -5.07384   -0.38350
       H    -5.46047   -9.31451    1.87085
       O    -6.30703   -8.88596    2.09155
      H1    -6.47642   -8.33032    1.35681
       H    -4.13130   -2.45664    3.16295
       O    -3.78635   -2.81875    2.41643
      H1    -4.31999   -2.49509    1.68285
       H    -8.97885   -7.51654    7.87478
       O    -8.82542   -7.26834    6.93346
      H1    -9.15527   -7.99999    6.45881
       H    -4.73023   -5.28044    0.65607
       O    -4.87537   -5.17682    1.63570
      H1    -4.36556   -4.35786    1.91837

