78
frame 9 | Written by MDAnalysis XYZWriter (release 2.4.3)
       H   -18.23847    1.06519   -5.45276
       O   -17.59456    1.78052   -5.70973
      H1   -17.04708    1.46344   -6.46556
       H   -19.45132    3.59971   -7.29562
       O   -19.32415    3.83066   -6.37238
      H1   -18.63166    3.21844   -6.17780
       H   -12.25827    6.57246   -4.45001
       O   -11.37119    6.83153   -4.10209
      H1   -11.53994    6.85741   -3.10791
       H   -15.24773    5.13617   -2.44342
       O   -14.33612    5.22907   -2.06897
      H1   -14.16691    6.16660   -2.02958
       H   -15.30632    8.48607   -3.04768
       O   -14.47968    7.99924   -2.95965
      H1   -13.86276    8.46192   -2.42064
       H   -15.87760    2.14717   -4.74449
       O   -14.91833    2.19593   -4.58456
      H1   -14.61394    2.87263   -5.16347
       H   -14.79917    6.56787   -7.24753
       O   -14.83833    6.10465   -8.07614
      H1   -13.90591    6.00494   -8.34713
       H   -16.82411   10.01316   -3.53733
       O   -16.87838    9.03488   -3.55741
      H1   -16.97803    8.82785   -4.49155
       H   -13.49251    3.11035   -7.38451
       O   -14.32496    3.45188   -7.07627
      H1   -14.46519    4.37958   -7.30135
       H   -13.46531   -0.13812   -3.16330
       O   -14.38073   -0.14141   -3.39287
      H1   -14.59090    0.79888   -3.41244
       H   -18.21276    8.42749   -7.35327
       O   -17.49367    8.48371   -6.71863
      H1   -16.80259    9.08716   -7.05998
       H   -15.58511    3.79090    0.75456
       O   -15.70079    4.69987    0.45506
      H1   -15.16932    4.79010   -0.34707
       H   -13.24378    5.01631    2.86820
       O   -13.75134    5.81433    2.48004
      H1   -14.49365    5.34822    2.05836
       H   -17.68332    5.31832   -2.36871
       O   -17.08694    4.82479   -2.94478
      H1   -17.23337    5.10308   -3.87364
       H   -19.20480    5.57344   -1.31690
       O   -18.94608    6.43307   -1.63540
      H1   -19.27559    6.55079   -2.53718
       H   -19.56728    3.57759    2.49071
       O   -18.60922    3.40192    2.38809
      H1   -18.13306    3.99493    3.03391
       H   -12.62772    2.84623   -3.65580
       O   -12.35130    3.49853   -3.01470
      H1   -13.11038    4.07800   -2.72119
       H   -16.34913   -0.90353   -2.00321
       O   -17.21614   -0.58837   -1.63742
      H1   -17.06387    0.34385   -1.45228
       H   -14.30702    7.59728    1.96100
       O   -14.91937    8.37833    1.92602
      H1   -15.50109    8.07745    1.20429
       H   -17.80429    6.82915   -5.87974
       O   -18.00201    5.96998   -5.45477
      H1   -18.43103    5.46594   -6.14133
       H   -14.00446    2.16644    0.74033
       O   -14.53022    2.40856    1.50131
      H1   -15.06754    1.61541    1.59054
       H   -18.86933    3.26067   -0.96714
       O   -19.33714    3.85601   -0.28287
      H1   -18.66430    3.92491    0.44775
       H   -17.85189    2.87131   -2.97924
       O   -18.31906    2.26139   -2.39531
      H1   -18.72956    1.59095   -2.93097
       H   -18.03670    9.30819    0.04382
       O   -17.33557    9.25872   -0.60108
      H1   -17.79386    8.97849   -1.42366
       H   -16.95454    6.02632    0.74644
       O   -17.39272    6.84073    0.97656
      H1   -17.37106    7.39606    0.19845
       H   -13.13016    7.75856   -5.91275
       O   -13.81878    7.13675   -5.68095
      H1   -14.16846    7.47277   -4.85951

