78
frame 9 | Written by MDAnalysis XYZWriter (release 2.4.3)
       H   -16.22439    4.67125   18.31082
       O   -15.35091    5.13305   18.21881
      H1   -15.27144    6.01114   18.56242
       H   -13.96674   11.60415   12.08404
       O   -14.50112   10.89677   12.45547
      H1   -15.39844   11.07355   12.08614
       H   -11.76787   15.15416   19.46448
       O   -12.68527   15.12768   19.17694
      H1   -13.03240   15.96824   19.52237
       H   -14.47865   12.95888   17.13376
       O   -14.43654   12.98985   16.18138
      H1   -13.50980   12.86767   15.97372
       H   -15.00742   14.67605   15.63079
       O   -15.37141   15.33729   15.05138
      H1   -15.64510   16.10969   15.60852
       H   -19.58646    6.13750   16.20746
       O   -18.75955    5.72134   15.93249
      H1   -19.03839    5.41483   15.07889
       H   -19.09952   15.99327   17.32586
       O   -19.76700   16.02523   16.61915
      H1   -19.46415   15.73970   15.75518
       H   -17.25596    6.09245   15.54902
       O   -16.26950    6.19833   15.38274
      H1   -16.02007    6.66173   14.56075
       H   -17.00059   16.46955   17.44471
       O   -16.17007   16.98932   17.29218
      H1   -16.31532   17.95870   17.52177
       H   -11.57818    9.37561   17.99301
       O   -12.40735    9.24460   18.49900
      H1   -12.88980    8.60834   17.89968
       H   -15.93948    7.38789   16.62564
       O   -15.66036    8.17034   17.18738
      H1   -15.40504    8.81184   16.54639
       H   -13.21488   14.82229   12.69222
       O   -14.03105   15.29302   12.73489
      H1   -14.41230   15.17826   13.65517
       H   -13.88787    8.90540   14.67692
       O   -13.15796    8.36593   14.32061
      H1   -13.03299    7.71627   15.05094
       H   -16.85605   11.34437   14.44286
       O   -17.70992   11.66679   14.76014
      H1   -17.63457   11.89009   15.68950
       H   -14.92262   11.16935   15.81281
       O   -15.10520   10.41091   15.19258
      H1   -14.96177   10.85013   14.32521
       H   -16.96522    8.12510   18.74836
       O   -17.61914    7.74613   19.37815
      H1   -18.44004    8.25438   19.18362
       H   -16.69794   12.23103   11.07200
       O   -16.90649   11.67367   11.81174
      H1   -17.67799   12.10439   12.16283
       H   -13.02988   11.25644   18.74561
       O   -13.50677   12.07229   18.87450
      H1   -12.94427   12.86554   18.90991
       H   -19.33636   17.32208   19.22080
       O   -18.43366   17.16601   18.94637
      H1   -17.98207   18.01333   19.03627
       H   -19.39426    8.59438   15.37014
       O   -19.04819    9.16951   14.61889
      H1   -18.56171    9.93693   15.03216
       H   -18.88375    7.13603   12.63710
       O   -18.38321    7.85823   12.33111
      H1   -18.48084    8.42179   13.15266
       H   -17.42152   14.78087   14.43996
       O   -18.36732   14.96057   14.30509
      H1   -18.40985   15.65098   13.62640
       H   -17.82556   11.63876   18.32549
       O   -18.15177   11.65859   17.43657
      H1   -18.98714   12.11611   17.57004
       H   -18.92489   16.64014   11.69149
       O   -19.18580   16.82683   12.61460
      H1   -18.82961   17.70737   12.87652
       H   -17.61347    5.79571   19.02599
       O   -17.97936    4.96458   18.69309
      H1   -18.15619    5.10963   17.75151
       H   -19.13770   14.69972   12.14887
       O   -18.80182   14.36057   11.27408
      H1   -19.69780   14.32518   10.87897

