78
frame 10 | Written by MDAnalysis XYZWriter (release 2.4.3)
       H    -5.84650   -9.18513  -18.07591
       O    -6.40274   -9.75727  -18.56067
      H1    -6.47479   -9.34160  -19.41404
       H   -13.37044  -11.26583  -18.58230
       O   -14.12059  -11.87009  -18.80817
      H1   -14.97168  -11.43494  -18.47898
       H   -12.39424  -13.39692  -17.54786
       O   -12.59389  -13.01398  -16.70886
      H1   -11.84194  -12.44699  -16.43155
       H    -9.33457  -12.21316  -18.47525
       O   -10.10299  -12.08236  -19.00524
      H1    -9.71296  -11.80941  -19.87608
       H   -11.61018   -9.93818  -13.34771
       O   -11.95633  -10.36022  -14.14123
      H1   -11.17310  -10.69014  -14.65088
       H   -15.70828   -9.75450  -14.47701
       O   -15.01380   -9.07965  -14.57879
      H1   -14.20976   -9.49130  -14.18459
       H    -9.49413  -14.38164  -14.92478
       O    -9.56353  -13.60051  -14.29148
      H1    -8.88279  -13.77600  -13.63709
       H   -15.68187  -10.05350  -17.63122
       O   -16.32098  -10.81689  -17.65089
      H1   -16.56393  -10.97233  -16.76575
       H    -8.23234   -9.57153  -18.08125
       O    -9.18401   -9.35789  -17.94802
      H1    -9.14780   -8.80958  -17.18847
       H    -9.88174  -12.40317  -15.52330
       O   -10.16789  -11.66326  -15.99973
      H1    -9.32625  -11.19554  -16.19005
       H   -15.83776  -13.27888  -16.59748
       O   -15.21667  -13.51127  -15.88771
      H1   -14.36920  -13.02278  -16.02613
       H   -11.75134   -8.88914  -15.38830
       O   -11.32725   -8.35901  -16.07984
      H1   -11.26063   -8.98918  -16.75682
       H    -8.85042   -7.06230  -12.31073
       O    -9.24241   -7.15341  -11.45889
      H1    -9.86898   -6.44915  -11.25905
       H   -12.17094   -9.79402  -18.94958
       O   -11.89023  -10.23594  -18.11956
      H1   -11.12988  -10.76148  -18.34355
       H    -9.93214   -9.86443  -12.09629
       O   -10.74873   -9.41304  -11.80432
      H1   -10.29222   -8.56638  -11.73263
       H   -13.07680   -4.68109  -16.11431
       O   -12.82221   -4.73933  -17.02601
      H1   -13.38623   -4.12090  -17.41983
       H    -7.09932   -6.67390  -16.53744
       O    -7.17304   -7.48486  -16.00063
      H1    -7.99486   -7.32200  -15.53380
       H   -13.96562   -5.94171  -17.90974
       O   -14.47347   -6.63236  -18.40212
      H1   -14.06218   -7.51980  -18.18882
       H   -11.90969  -12.00653  -13.06449
       O   -12.06626  -12.79190  -12.54051
      H1   -11.90417  -13.51801  -13.14123
       H   -10.15731   -7.20751  -15.31112
       O    -9.44470   -6.78271  -14.77203
      H1    -9.73446   -5.84686  -14.82386
       H   -10.91691   -4.34205  -17.57636
       O   -10.11245   -4.03151  -17.23788
      H1    -9.45344   -4.37458  -17.84390
       H   -16.31932   -7.30983  -18.35116
       O   -16.95558   -7.84370  -18.86853
      H1   -17.16922   -7.39395  -19.70440
       H    -9.69986   -8.25252  -19.14893
       O    -9.89137   -7.70500  -19.88152
      H1    -9.11372   -7.27634  -20.21310
       H    -6.88306  -13.75761  -18.34576
       O    -7.48924  -13.11186  -17.94201
      H1    -6.99049  -12.31792  -17.95342
       H   -13.41117   -9.45704  -17.14893
       O   -14.27520   -9.08991  -17.20648
      H1   -14.65888   -9.08471  -16.35556
       H   -15.09601   -6.79661  -12.18832
       O   -14.74936   -6.47132  -13.00949
      H1   -14.61232   -7.35296  -13.42665

