78
frame 9 | Written by MDAnalysis XYZWriter (release 2.4.3)
       H   -16.22439    4.67125   18.31082
       O   -15.35091    5.13305   18.21881
      H1   -15.27144    6.01114   18.56242
       H   -10.38409    6.78617   12.81087
       O   -10.67263    7.05388   13.68655
      H1   -11.35445    7.68288   13.62514
       H   -12.10725    1.40119   12.15945
       O   -12.39145    0.65406   12.70076
      H1   -11.95970    0.76021   13.58342
       H   -11.21912    2.17554   17.74109
       O   -10.41189    2.24347   17.18650
      H1    -9.72355    1.87620   17.84842
       H   -12.58645    4.17829   14.62425
       O   -11.81660    4.42959   14.11817
      H1   -11.76368    5.36349   14.34384
       H   -19.58646    6.13750   16.20746
       O   -18.75955    5.72134   15.93249
      H1   -19.03839    5.41483   15.07889
       H   -14.97152    3.25392   12.50847
       O   -15.40621    3.64934   13.23934
      H1   -15.45954    4.57052   12.96065
       H   -18.42305    3.09174   14.32438
       O   -18.21005    3.39651   13.45117
      H1   -17.25472    3.53428   13.58420
       H   -17.25596    6.09245   15.54902
       O   -16.26950    6.19833   15.38274
      H1   -16.02007    6.66173   14.56075
       H   -11.57818    9.37561   17.99301
       O   -12.40735    9.24460   18.49900
      H1   -12.88980    8.60834   17.89968
       H   -15.93948    7.38789   16.62564
       O   -15.66036    8.17034   17.18738
      H1   -15.40504    8.81184   16.54639
       H   -13.88787    8.90540   14.67692
       O   -13.15796    8.36593   14.32061
      H1   -13.03299    7.71627   15.05094
       H   -16.96522    8.12510   18.74836
       O   -17.61914    7.74613   19.37815
      H1   -18.44004    8.25438   19.18362
       H   -12.87588    2.64200   18.88914
       O   -12.60765    1.71384   18.69348
      H1   -12.80828    1.29696   19.59248
       H   -13.14395    5.82611   15.91162
       O   -12.58502    6.51690   16.27873
      H1   -11.84568    6.06533   16.73747
       H   -15.60445    6.50813   12.05700
       O   -15.11998    6.42182   12.91576
      H1   -14.53117    7.16829   13.03930
       H   -16.47296    0.53861   18.42980
       O   -16.57332    0.01209   19.19517
      H1   -16.95022   -0.78957   18.82001
       H   -12.22032    3.36255   11.24859
       O   -11.46325    2.99688   11.68894
      H1   -11.51917    3.24472   12.61094
       H   -13.87225    4.73068   18.83105
       O   -13.13729    4.26746   19.21719
      H1   -12.33278    4.62982   18.81682
       H   -19.13804    3.57236   18.66983
       O   -19.35839    2.71046   18.23351
      H1   -18.91671    2.09667   18.82697
       H    -9.92226    4.38305   14.85720
       O    -9.04356    4.48515   15.16595
      H1    -9.07461    5.23896   15.73949
       H   -14.76435    4.52833   16.42421
       O   -14.30486    3.96841   15.79459
      H1   -15.02214    4.01436   15.08953
       H   -10.59684    4.07290   17.37248
       O   -10.89411    4.96174   17.69797
      H1   -10.44413    5.15305   18.49218
       H   -14.72785    2.28572   16.87785
       O   -14.92511    1.37601   17.19934
      H1   -14.06117    1.27773   17.68851
       H   -15.53940    0.37926   15.85485
       O   -15.85225   -0.38066   15.32146
      H1   -15.58461   -0.17784   14.39305
       H   -17.61347    5.79571   19.02599
       O   -17.97936    4.96458   18.69309
      H1   -18.15619    5.10963   17.75151

