78
frame 9 | Written by MDAnalysis XYZWriter (release 2.4.3)
       H   -16.85874   12.58017  -18.81280
       O   -17.09806   11.68267  -19.19024
      H1   -16.44061   11.09724  -18.78162
       H   -19.91032   15.83353  -17.53011
       O   -19.61524   14.94709  -17.93003
      H1   -19.20140   14.48819  -17.19674
       H   -16.24420    5.22596  -16.37228
       O   -15.71567    4.52370  -15.91841
      H1   -14.91542    4.53336  -16.51008
       H    -9.38414    6.04210  -19.40887
       O   -10.10232    5.53914  -19.00790
      H1   -10.54237    6.14839  -18.38568
       H   -11.03964    6.99695  -16.21926
       O   -10.71144    7.47251  -16.98689
      H1   -11.33445    8.21492  -17.00927
       H   -14.94515   10.44382  -19.53171
       O   -15.21601    9.96407  -18.73856
      H1   -14.80636    9.09567  -18.88312
       H   -17.99768   10.87601  -17.81678
       O   -18.39108   10.88086  -16.93730
      H1   -18.10802   10.08549  -16.43301
       H   -14.33596   14.52489  -13.35635
       O   -15.30839   14.49838  -13.24462
      H1   -15.73456   14.29491  -14.10954
       H   -10.59704    9.20376  -14.50104
       O   -10.26030    9.87861  -15.14024
      H1    -9.38059    9.59785  -15.48592
       H   -15.63231   16.58055  -20.33519
       O   -15.16686   16.49731  -19.49893
      H1   -15.67393   17.19281  -18.94426
       H   -11.78088   16.94600  -17.28358
       O   -11.35155   16.15332  -16.95935
      H1   -12.12496   15.64129  -16.74370
       H   -12.89412   13.37926  -17.36832
       O   -13.38797   14.22062  -17.25320
      H1   -13.53404   14.51699  -18.23302
       H   -18.08410    8.06719  -14.90461
       O   -17.58516    8.72632  -15.41980
      H1   -17.35173    9.30150  -14.67578
       H   -10.24775   12.31035  -16.89633
       O   -10.88241   12.27195  -17.62967
      H1   -11.22653   11.31494  -17.71419
       H   -10.63012   15.55732  -18.54008
       O   -10.16728   15.17221  -19.29069
      H1    -9.69947   15.90880  -19.68059
       H   -15.10798   11.25050  -15.00839
       O   -15.16031   10.49226  -14.46375
      H1   -15.39218   10.94339  -13.65462
       H   -18.03007    6.81900  -16.80736
       O   -17.91948    6.28613  -17.65201
      H1   -17.86250    6.88505  -18.46284
       H   -18.94906   13.49162  -15.55159
       O   -18.22363   13.30432  -16.17299
      H1   -18.34921   12.36763  -16.49360
       H   -13.14280    4.31153  -18.04368
       O   -13.09127    4.30952  -17.06260
      H1   -12.48064    4.99293  -16.89890
       H   -16.08998   15.11791  -18.60350
       O   -16.62289   14.36117  -18.29310
      H1   -17.50502   14.70544  -18.16994
       H   -14.95917   13.24261  -16.28181
       O   -15.53113   12.95779  -15.53479
      H1   -16.40853   13.18494  -15.92845
       H   -13.20866   10.16903  -17.05976
       O   -12.25559    9.91644  -17.19855
      H1   -11.84762    9.93947  -16.30470
       H   -13.31319    7.89678  -18.51068
       O   -14.12711    7.38011  -18.63160
      H1   -14.27627    6.90712  -17.83186
       H   -12.34658    6.81940  -14.57760
       O   -11.71985    6.11544  -14.79443
      H1   -10.92879    6.13917  -14.19608
       H   -13.66606    8.39220  -13.23207
       O   -13.83724    7.91910  -14.08367
      H1   -14.29646    8.64877  -14.54855
       H   -14.45586   15.45836  -16.26965
       O   -14.90679   16.25329  -15.97293
      H1   -15.77962   15.93279  -15.70962

