78
frame 9 | Written by MDAnalysis XYZWriter (release 2.4.3)
       H     5.61971   19.14165  -14.73101
       O     4.99198   18.39253  -14.42973
      H1     4.27604   18.34760  -15.04008
       H    14.91214   20.04899  -19.46215
       O    15.08910   19.27969  -18.94458
      H1    15.90847   18.93157  -19.21418
       H     8.99684   13.31365  -12.39474
       O     8.21039   13.85106  -12.63691
      H1     7.91817   13.60285  -13.52623
       H     6.27907   17.69221  -16.76482
       O     5.69434   17.78585  -17.50266
      H1     6.16520   18.57836  -17.93443
       H     5.78049   16.62262  -10.38061
       O     5.21352   17.27838  -10.84440
      H1     5.77423   17.41196  -11.66405
       H    11.15052   14.16852  -19.79682
       O    10.33670   14.68954  -19.73476
      H1    10.34723   15.09148  -18.88403
       H     9.02309   18.88845  -16.52971
       O     9.10848   19.31746  -15.63638
      H1     9.35118   20.32251  -15.87937
       H    16.63397   16.42838  -14.31130
       O    16.41914   17.15915  -13.73931
      H1    15.60047   17.55045  -14.16194
       H     7.90262   19.07566  -13.33511
       O     7.58499   18.57681  -12.55399
      H1     8.10038   19.06572  -11.91217
       H    13.22892   16.77183  -11.70838
       O    13.60478   16.72528  -10.80039
      H1    14.10170   15.94917  -10.71678
       H    13.16024   17.92007  -18.73060
       O    12.36743   17.42177  -18.77716
      H1    12.18689   17.51276  -19.70669
       H     8.94058   17.13368  -12.59549
       O     9.28885   16.54076  -13.27663
      H1     8.91242   15.67012  -13.08542
       H    11.32349   17.78338   -8.33964
       O    11.71218   18.26036   -9.10030
      H1    12.25684   17.62794   -9.53916
       H     9.77624   16.34391  -10.06864
       O     9.22682   17.02765  -10.51890
      H1     9.79694   17.78088  -10.68553
       H     7.70792   15.97673  -10.17595
       O     7.06913   15.23816  -10.27863
      H1     7.23327   14.99719  -11.18351
       H     8.36826   16.60787  -14.58576
       O     7.66062   16.60429  -15.32204
      H1     6.84418   16.21238  -15.09719
       H    10.51609   15.69860  -16.28472
       O     9.89553   15.63386  -17.02152
      H1     9.05021   15.87941  -16.54909
       H     6.48720   18.12968  -10.19654
       O     7.13379   18.51269   -9.55628
      H1     7.95151   17.94281   -9.66500
       H     9.12720   14.08960  -17.61843
       O     8.68043   13.17430  -17.61896
      H1     8.19902   13.13311  -16.77549
       H    12.99572   15.05899  -16.01346
       O    12.44916   15.86524  -15.95247
      H1    12.29776   16.18942  -16.88789
       H    12.20606   16.51514  -14.03579
       O    12.12391   16.47288  -13.10628
      H1    11.13712   16.38286  -13.05613
       H    10.38255   19.91263  -18.88488
       O     9.92918   19.19309  -18.50673
      H1    10.48212   18.45945  -18.72454
       H    10.57932   19.41196  -14.68859
       O    11.24200   19.42252  -13.98013
      H1    12.06499   19.22645  -14.41152
       H     8.04317   19.33186  -18.74660
       O     7.13871   19.68935  -18.75055
      H1     6.92318   19.50233  -19.69374
       H    11.59675   13.76984  -11.70823
       O    12.39519   14.22435  -11.91076
      H1    12.21371   15.00284  -12.43077
       H    14.30908   18.67488  -15.55938
       O    14.30891   17.76849  -15.12448
      H1    13.70148   17.24847  -15.65349

