78
frame 10 | Written by MDAnalysis XYZWriter (release 2.4.3)
       H    -1.18057   -7.89829    0.17392
       O    -1.65159   -8.72883    0.50016
      H1    -2.01853   -8.50498    1.37355
       H     1.87179   -9.00197    0.44579
       O     2.28230   -9.08656   -0.42633
      H1     3.07691   -8.53304   -0.35983
       H    -3.79090   -7.25128   -0.60881
       O    -4.22787   -8.07008   -0.74990
      H1    -3.46057   -8.63640   -0.73562
       H    -0.74874  -13.57671   -6.77058
       O    -1.53104  -14.10584   -6.87956
      H1    -2.09024  -14.05781   -6.09482
       H    -0.35200   -8.10298   -2.78606
       O    -0.25606   -8.79577   -3.48810
      H1    -0.95861   -8.61742   -4.12658
       H     1.59808   -8.04298   -3.66101
       O     2.44573   -7.62807   -3.50543
      H1     2.68161   -7.41826   -4.41493
       H    -0.06571  -11.43943   -6.43441
       O     0.10834  -12.27409   -6.10986
      H1     0.06727  -12.27607   -5.16415
       H    -2.64512  -15.24564   -4.87721
       O    -2.58634  -14.32610   -4.50589
      H1    -3.48426  -13.96939   -4.66195
       H    -1.33805  -13.29529   -3.17168
       O    -0.59304  -12.73656   -2.84341
      H1    -1.10150  -11.93729   -2.61577
       H     1.08308  -15.10893   -3.18155
       O     1.00166  -14.90734   -2.21765
      H1     0.68344  -14.02129   -2.24839
       H    -4.51620  -12.31965   -4.60992
       O    -5.18126  -13.00945   -4.44060
      H1    -5.66915  -13.22435   -5.26044
       H    -3.89476  -12.86024    1.61602
       O    -3.75663  -13.02285    2.54705
      H1    -4.52080  -13.54612    2.84992
       H     0.63537   -6.27659   -0.83338
       O     0.38895   -7.13959   -1.09338
      H1     1.04743   -7.75899   -0.92648
       H    -2.70422  -14.97647   -1.04623
       O    -3.24508  -14.89022   -1.83476
      H1    -2.69756  -14.93469   -2.65637
       H     2.34115  -12.01879   -1.39362
       O     2.65058  -12.42084   -0.56532
      H1     3.02683  -11.69005   -0.08818
       H    -0.91349  -14.81375    0.40284
       O    -1.45431  -15.54708    0.01544
      H1    -0.82324  -16.01766   -0.57730
       H    -1.54912  -11.01395    1.91956
       O    -0.74950  -11.38255    2.31651
      H1    -0.76500  -11.57345    3.32337
       H    -5.82654  -13.81348   -3.19921
       O    -5.86231  -14.47029   -2.48881
      H1    -4.89970  -14.53076   -2.17301
       H    -4.36841  -11.63095   -0.08499
       O    -3.60268  -12.20959   -0.10806
      H1    -3.81488  -12.84049   -0.80818
       H    -0.15940  -12.89253    1.48567
       O     0.32787  -13.72574    1.26893
      H1     0.92643  -13.53131    0.59240
       H    -2.66872  -18.12787   -2.49508
       O    -2.25668  -17.76777   -1.65533
      H1    -2.79230  -16.94931   -1.53363
       H     0.71526  -16.23277   -5.08893
       O     0.81646  -15.25040   -4.93582
      H1     0.00434  -14.83228   -5.26092
       H     4.43426   -9.58099   -4.67963
       O     4.00691  -10.10134   -3.98737
      H1     3.32525   -9.46846   -3.75252
       H    -2.56244   -9.67631   -5.46016
       O    -1.97140   -9.03818   -5.86032
      H1    -2.45146   -8.22391   -5.99747
       H    -4.30291  -10.15872   -4.57367
       O    -3.52633  -10.70307   -4.47808
      H1    -3.11554  -10.37080   -3.63930
       H    -2.93221  -11.09943   -1.23988
       O    -2.40076  -10.72074   -1.99553
      H1    -1.77941  -10.13213   -1.59460

