78
frame 11 | Written by MDAnalysis XYZWriter (release 2.4.3)
       H    13.25902   10.16049  -13.11401
       O    13.40250   11.05392  -13.19993
      H1    13.97084   11.36646  -12.51549
       H    13.09906   12.42434  -15.61315
       O    13.64812   13.09151  -16.07795
      H1    14.46418   12.96576  -15.56277
       H    11.33830   15.00875  -19.50533
       O    10.44313   15.41415  -19.50955
      H1    10.10462   15.15310  -18.63563
       H    13.83505    7.36579  -16.06712
       O    14.77502    7.63542  -16.13258
      H1    15.30202    6.79722  -16.07147
       H     6.31130    8.85648  -16.39894
       O     6.51190    8.25895  -15.64360
      H1     6.21177    8.74449  -14.84411
       H    12.34392    7.56221  -14.76340
       O    12.15578    7.07566  -15.53236
      H1    12.06481    6.17134  -15.22936
       H    14.24773    7.76144  -13.21013
       O    13.34570    7.99427  -12.97281
      H1    13.23820    7.81764  -12.05138
       H     8.36073    4.87762  -15.96929
       O     9.18107    5.25139  -15.68138
      H1     9.14782    6.23037  -15.64861
       H    15.60373    8.94477  -15.13679
       O    16.01041    9.50519  -14.45766
      H1    15.31357   10.12366  -14.16848
       H     9.30779    9.12629  -12.95135
       O     9.62656    8.23119  -13.33789
      H1     9.57019    8.26406  -14.33315
       H    16.29643   12.32416  -14.42848
       O    15.53152   12.88171  -14.23422
      H1    15.52844   13.10748  -13.32441
       H    10.20586   15.45380  -15.93416
       O     9.71958   15.23291  -16.78525
      H1     8.78726   15.19591  -16.60982
       H     7.04534   13.33482  -17.74183
       O     7.98562   13.12827  -17.94020
      H1     8.31416   12.73876  -17.12596
       H     9.96488   13.30204  -15.90463
       O     9.87362   12.36756  -15.63641
      H1     9.55794   12.38257  -14.76813
       H    11.76559    7.69907  -18.47473
       O    10.90174    7.31721  -18.35650
      H1    10.82663    7.04457  -17.41952
       H    13.19765   14.72939  -15.53590
       O    13.03295   15.69047  -15.42660
      H1    12.62662   15.98691  -16.25499
       H    11.09006   15.45492  -14.28603
       O    10.34129   16.10221  -14.23799
      H1     9.72741   15.69067  -13.69104
       H    12.14634   12.52350  -12.92224
       O    11.71560   13.38979  -12.99036
      H1    12.09275   13.93561  -12.32453
       H     8.09794    8.07163  -15.86820
       O     9.07596    8.03992  -15.96873
      H1     9.31480    8.70163  -16.63251
       H     6.92607   12.39853  -18.97460
       O     6.39079   11.64714  -19.32644
      H1     6.89524   11.20906  -20.05464
       H    14.17961   12.44893  -17.91681
       O    14.48989   12.16374  -18.78456
      H1    15.42037   12.41436  -18.77081
       H     6.56357    8.71563  -18.32101
       O     5.84195    9.32602  -18.06791
      H1     6.01289   10.12207  -18.63049
       H    14.66251    7.63497  -18.27204
       O    14.11112    7.26880  -19.02641
      H1    14.35817    6.34841  -18.91481
       H    10.96317   11.48212  -16.63250
       O    11.81603   11.01635  -16.80360
      H1    11.66403   10.54958  -17.61396
       H     7.95171    7.06636  -18.71214
       O     8.25662    7.99862  -18.79323
      H1     9.23359    7.82738  -18.63307
       H     9.97485   12.92352  -12.88053
       O     9.02580   12.62955  -12.84467
      H1     9.06206   11.72233  -12.42828

