78
frame 10 | Written by MDAnalysis XYZWriter (release 2.4.3)
       H     9.26541   12.97452   -7.35559
       O    10.17175   13.33690   -7.29149
      H1    10.05692   14.20584   -6.93949
       H     7.92940   13.81015   -5.11666
       O     8.60594   13.99085   -4.40689
      H1     8.23077   14.67305   -3.83847
       H    13.76005   18.40348   -0.67356
       O    14.63487   18.61656   -1.18321
      H1    14.64602   18.01529   -1.95498
       H    11.40349   12.32773   -3.30083
       O    10.45612   11.94721   -3.40574
      H1     9.90323   12.74129   -3.41573
       H    12.68046   18.03565   -8.81824
       O    12.56087   18.74222   -9.43566
      H1    12.31839   18.39748  -10.28869
       H     6.27449   19.63081   -4.62165
       O     6.07825   18.71988   -4.29821
      H1     5.88146   18.86626   -3.34161
       H    10.87985   18.43287   -3.96191
       O    11.25321   18.32743   -4.83209
      H1    12.18455   18.48327   -4.92506
       H    12.79942   12.83503   -1.96665
       O    13.02624   12.41162   -2.81846
      H1    13.50389   11.56546   -2.73945
       H     4.35090   16.55772   -7.77938
       O     5.06772   16.07131   -7.44109
      H1     5.67957   16.82952   -7.10133
       H     8.88658   14.65568   -0.39698
       O     8.91787   14.06264   -1.17086
      H1     9.36738   13.26951   -0.88955
       H    11.02884   15.89098   -9.61166
       O    10.07295   16.19858   -9.61601
      H1     9.86614   16.57109   -8.74897
       H    12.70233   15.37764    2.19863
       O    11.97216   15.59993    1.57737
      H1    12.18753   16.45742    1.19382
       H    12.57656   14.40462    0.37946
       O    12.74897   14.08404   -0.58259
      H1    12.03434   14.58259   -1.02334
       H    14.08551   18.88131   -9.21581
       O    15.07915   18.78451   -9.11850
      H1    15.39933   18.36229   -9.95671
       H     7.85395   17.16029   -2.45003
       O     7.88807   16.63357   -3.19205
      H1     7.42580   17.14209   -3.86078
       H    10.34337   17.63638   -1.94411
       O    10.39843   18.63912   -2.14661
      H1     9.59117   18.96446   -1.76278
       H    11.14472   15.07409   -3.48916
       O    11.03064   15.31515   -2.51165
      H1    10.16235   15.02145   -2.18490
       H    12.63217   18.90616    0.99207
       O    13.04599   18.05471    1.07356
      H1    13.32263   18.12473    1.95972
       H    10.40714   14.94267   -5.04763
       O    11.26839   15.40528   -5.16435
      H1    11.02264   16.30725   -4.77878
       H     8.05724   18.95379    0.13799
       O     7.62321   18.44936   -0.59008
      H1     7.77667   19.05684   -1.33793
       H    14.10091   19.92237   -5.77461
       O    14.06522   18.96270   -5.81145
      H1    14.55283   18.71182   -6.58330
       H     7.05964   18.70026   -7.62942
       O     7.05270   18.22242   -6.80278
      H1     6.79218   18.75447   -6.02893
       H    10.20586   17.75513   -6.43271
       O     9.70339   17.65823   -7.24508
      H1     8.76166   17.77309   -6.93412
       H    16.49211   18.19328   -3.89190
       O    17.29523   18.76118   -3.80521
      H1    17.26796   19.28840   -4.60556
       H    14.34015   17.35386   -4.13761
       O    14.96331   17.19947   -3.40411
      H1    15.18120   16.24513   -3.38924
       H    13.38649   15.68547   -7.72414
       O    12.87514   16.50829   -7.66020
      H1    12.10533   16.26911   -7.11295

