78
frame 1 | Written by MDAnalysis XYZWriter (release 2.4.3)
       H     3.43254   -3.13363   12.17027
       O     3.54314   -3.94179   12.65775
      H1     2.63719   -4.05803   12.90261
       H    -1.19346   -1.24946   18.40569
       O    -0.45009   -1.61385   17.87649
      H1    -0.85037   -2.21883   17.22654
       H     1.05255   -7.69493   14.02357
       O     1.55069   -7.19431   14.70367
      H1     2.42553   -7.16734   14.31686
       H     4.99464   -3.98110   16.17567
       O     5.27040   -3.57997   15.32879
      H1     4.55389   -3.65902   14.68002
       H    -0.46196   -3.19872   13.96572
       O    -1.16625   -2.60227   14.26304
      H1    -1.71961   -3.09175   14.80793
       H    -3.46669   -8.73238   16.27281
       O    -3.90776   -8.81316   17.11673
      H1    -3.14072   -8.93625   17.76862
       H    -3.59510   -8.37259   13.37381
       O    -4.18951   -8.51576   12.58815
      H1    -3.85104   -7.73303   12.05441
       H    -0.78946  -10.26381   14.67634
       O    -0.87151  -11.21616   14.58780
      H1    -1.57679  -11.44449   14.01773
       H    -2.81568   -6.34136   10.69335
       O    -2.63270   -6.14127   11.65186
      H1    -2.39552   -5.23719   11.72408
       H    -0.36095   -8.21625   12.01255
       O    -0.18820   -8.44192   12.92565
      H1     0.03129   -9.40817   12.89276
       H     1.68739    0.08107   16.37456
       O     0.72359    0.18015   16.33123
      H1     0.38983   -0.39268   17.02441
       H     2.37185  -10.53524   16.77082
       O     2.72252  -11.29055   16.22179
      H1     3.41764  -11.72174   16.70037
       H     4.38498   -7.43991   12.64739
       O     3.87965   -7.80130   13.39627
      H1     4.21761   -8.68363   13.59538
       H     5.17897   -7.91717   17.35433
       O     4.72172   -7.17649   16.96512
      H1     4.96693   -6.37985   17.47169
       H    -1.54559   -4.93923   18.86340
       O    -2.41756   -4.92170   19.25508
      H1    -2.40255   -5.54696   20.01318
       H    -3.07039   -7.47940   14.78005
       O    -2.49987   -8.28523   14.88190
      H1    -1.72756   -7.95642   14.40026
       H     0.34901   -4.58782   12.45436
       O     0.67530   -4.53075   13.34950
      H1     0.90914   -5.43466   13.59873
       H    -1.17181   -7.52583   17.84619
       O    -1.31638   -8.43567   18.13093
      H1    -0.44768   -8.73560   17.79769
       H    -3.16214   -4.51859   15.94025
       O    -2.56655   -3.84592   16.20222
      H1    -3.02043   -3.24809   16.83888
       H    -1.28692   -5.32731   16.61897
       O    -0.61839   -5.97733   16.99420
      H1     0.17236   -5.92287   16.44683
       H     0.82092   -4.96859   18.07636
       O     1.24764   -4.25117   18.54530
      H1     1.18358   -3.53971   17.88809
       H     3.30764   -4.34178   17.82822
       O     4.25381   -4.35916   17.91566
      H1     4.56513   -3.52861   18.29158
       H    -4.33884   -7.05385   17.77542
       O    -4.36273   -6.09552   17.82757
      H1    -3.51219   -5.84829   18.31082
       H    -4.44180   -5.98464   14.33071
       O    -3.81505   -5.87872   15.00677
      H1    -4.30867   -5.96198   15.80492
       H     0.87935   -2.81057   15.36024
       O     1.68642   -3.04364   15.86660
      H1     2.24654   -2.27611   15.90039
       H     1.48306   -8.53251   16.09609
       O     1.04572   -8.90838   16.81074
      H1     1.31580   -8.49047   17.60761

