78
frame 10 | Written by MDAnalysis XYZWriter (release 2.4.3)
       H     4.52405   -8.43790    3.96303
       O     4.27660   -7.83008    4.61254
      H1     5.00123   -7.16287    4.53181
       H     5.04997   -7.48671    6.25466
       O     5.56503   -7.17678    6.99591
      H1     6.40163   -7.58753    6.88212
       H    -0.38476   -6.11260    6.38489
       O     0.05099   -6.52442    7.13985
      H1    -0.71260   -6.96078    7.60395
       H     2.75683   -5.30442    3.02990
       O     2.63965   -6.23578    2.84300
      H1     3.23891   -6.83365    3.37858
       H     3.21167   -2.92335    7.89315
       O     3.80390   -3.63717    7.69700
      H1     3.42649   -4.35106    8.21305
       H     0.34027   -3.71896    7.03244
       O    -0.45027   -3.18491    7.02326
      H1    -0.25873   -2.24763    6.81124
       H    -2.95866   -8.35883   10.71148
       O    -2.22780   -7.67862   10.45620
      H1    -2.49984   -6.77325   10.76959
       H    -5.43136   -7.48749    4.85771
       O    -4.59157   -7.02618    5.05968
      H1    -4.63940   -6.20437    4.56303
       H    -1.33533   -8.81739   12.98919
       O    -0.91921   -7.97107   12.80310
      H1    -1.22151   -7.75382   11.92213
       H    -0.38670  -10.34902    7.55777
       O    -0.83923  -10.39930    6.71708
      H1    -0.27790  -10.96021    6.14098
       H    -2.73807   -7.86279    6.02048
       O    -2.42822   -7.92644    6.90902
      H1    -1.70959   -8.53320    6.88855
       H     2.65807   -4.68972   11.21038
       O     1.67699   -4.95218   11.18167
      H1     1.28647   -4.11178   11.44186
       H    -2.16352   -2.75930    9.44683
       O    -1.22479   -2.55970    9.65186
      H1    -0.84458   -2.85626    8.82420
       H     4.45552   -7.99995    8.22387
       O     3.79302   -8.48115    8.78578
      H1     3.23591   -7.68025    9.05774
       H     0.27608   -9.53748   10.09789
       O    -0.13827   -9.50630    9.24097
      H1    -0.90648   -8.86650    9.35116
       H    -4.21802   -8.86091    7.36319
       O    -5.04944   -9.37108    7.41574
      H1    -5.44720   -9.16024    6.55624
       H    -2.42178   -2.60847    6.47842
       O    -3.11028   -2.75470    5.89348
      H1    -3.78668   -2.07691    5.91307
       H     0.99612   -7.68229    6.15407
       O     1.39463   -8.32322    5.53902
      H1     1.82784   -9.00363    6.12676
       H     3.36688  -10.69283    6.83227
       O     2.55017  -10.24027    7.06123
      H1     2.87888   -9.69601    7.78790
       H    -0.84049   -3.95270    4.54018
       O    -1.36982   -4.72956    4.70445
      H1    -2.19036   -4.42989    5.04901
       H    -1.96348   -7.21657    3.18360
       O    -2.58512   -7.87021    3.43320
      H1    -3.39045   -7.58547    3.82661
       H     1.15601   -9.04590    3.95196
       O     1.20844   -9.58723    3.09776
      H1     0.30008   -9.78582    2.79387
       H     1.57777   -6.44632    8.29977
       O     2.30427   -6.28893    8.95677
      H1     1.82244   -5.79437    9.65125
       H    -4.19292   -4.29036    6.62878
       O    -4.84069   -4.94180    6.74306
      H1    -4.51368   -5.78367    6.47841
       H    -2.48648  -10.93435    7.10714
       O    -3.26275  -11.43405    7.42318
      H1    -3.97725  -10.84129    7.50133
       H    -0.43799   -5.76160    3.35943
       O    -0.25211   -6.32371    2.58090
      H1     0.70175   -6.43346    2.53813

