78
frame 11 | Written by MDAnalysis XYZWriter (release 2.4.3)
       H    -2.44245   16.88450   -1.57932
       O    -2.96890   17.31481   -0.90409
      H1    -2.66662   18.19467   -0.66586
       H    -2.29606   13.11407    3.30769
       O    -2.08105   13.99936    3.07380
      H1    -2.86981   14.23758    2.56871
       H    -8.00549   19.37537    2.26896
       O    -8.14569   18.60887    1.69813
      H1    -9.06796   18.40148    1.69318
       H    -6.59169   17.94565    4.27419
       O    -5.90318   17.36744    4.00103
      H1    -6.04532   17.23881    3.07901
       H    -7.61048   13.36697    0.43304
       O    -7.17133   12.54221    0.33966
      H1    -6.34973   12.71261   -0.13168
       H    -3.12309   19.69259    4.33445
       O    -3.13609   19.10141    3.55218
      H1    -3.60641   18.27720    3.72826
       H    -6.41372   17.39621   -2.73887
       O    -6.96219   18.16795   -2.62705
      H1    -6.46247   18.71461   -1.93891
       H    -8.50042   17.77037    4.67729
       O    -8.04151   18.62830    4.95292
      H1    -7.72002   18.63500    5.82018
       H   -11.82075   18.10574    1.98819
       O   -10.90799   18.36330    2.30337
      H1   -10.60148   17.74233    2.93778
       H    -1.66238   18.14934    4.19057
       O    -1.22163   17.50418    4.75404
      H1    -0.41787   17.93487    5.08239
       H    -9.71377   15.81437    3.90808
       O    -9.97390   16.66532    4.31436
      H1   -10.82789   16.61288    4.73677
       H    -7.82333   15.43950   -2.61670
       O    -7.23477   14.76800   -2.21047
      H1    -7.63782   13.95154   -2.54517
       H    -4.06720   15.69177   -5.53801
       O    -4.75313   16.30868   -5.24931
      H1    -4.52101   16.34040   -4.27523
       H    -9.77916   14.81011   -1.43335
       O    -9.95759   14.93523   -0.50673
      H1   -10.57870   15.68555   -0.53365
       H    -8.86904   16.07044   -4.22206
       O    -8.97600   16.31939   -3.27198
      H1    -8.39292   17.14940   -3.15738
       H    -4.50188   14.14529    1.63601
       O    -3.97230   14.82966    1.15994
      H1    -4.42063   15.65221    1.11872
       H    -6.06485   13.00575    2.99955
       O    -5.39289   12.88898    2.30361
      H1    -5.90152   12.59622    1.54531
       H    -1.63440   15.65396    1.32930
       O    -1.14507   16.32700    0.86258
      H1    -1.89473   16.70053    0.35560
       H   -10.13634   13.55353    4.12308
       O    -9.63400   13.76214    3.29009
      H1   -10.29793   13.85893    2.62755
       H    -4.73786   13.31737   -1.65966
       O    -4.71359   13.14455   -0.74452
      H1    -4.32173   13.96103   -0.26766
       H    -6.23087   17.19696    0.67463
       O    -5.37236   17.23573    1.12342
      H1    -5.02348   18.06296    0.90252
       H    -4.41497   16.40234   -1.63812
       O    -4.86247   16.13287   -2.45413
      H1    -5.57612   15.44944   -2.26648
       H    -8.35422   15.94566   -0.40630
       O    -7.87950   16.74600   -0.24454
      H1    -8.17471   17.09761    0.60916
       H    -5.50238   16.60773    5.58712
       O    -5.28492   15.99425    6.33880
      H1    -5.97338   15.95315    6.98683
       H   -12.32874   13.40871    1.23477
       O   -11.66274   14.14317    1.44464
      H1   -11.12106   14.26051    0.58530
       H    -3.98300   14.99782    5.71583
       O    -3.26806   14.36541    5.57258
      H1    -2.93060   14.66947    4.73300

