78
frame 11 | Written by MDAnalysis XYZWriter (release 2.4.3)
       H    -6.70236    9.40777  -18.85425
       O    -7.65467    9.50748  -18.98861
      H1    -7.78332   10.43233  -18.81081
       H   -11.04039    8.45930  -12.29358
       O   -10.46123    8.66824  -13.08683
      H1   -10.04226    7.82146  -13.24574
       H    -8.17257   11.48904  -12.87574
       O    -8.66981   12.24787  -13.26863
      H1    -9.22857   12.48120  -12.48103
       H    -9.14062    7.40261  -16.57090
       O    -9.01246    8.35163  -16.62018
      H1    -8.57826    8.51684  -17.46856
       H   -14.40436   11.27151  -12.80415
       O   -14.47983   10.79689  -11.94943
      H1   -15.41974   10.59769  -11.84002
       H   -11.20778    6.37833  -17.53725
       O   -10.85022    6.58274  -18.40645
      H1   -10.62873    7.55095  -18.39860
       H   -14.76131    7.91018  -11.43796
       O   -13.99969    8.02936  -11.94665
      H1   -13.89981    8.96897  -12.12048
       H   -11.48668    8.26004   -9.94181
       O   -11.62799    7.71505  -10.74491
      H1   -12.47536    8.06118  -11.13047
       H   -11.88206   15.50517  -14.58488
       O   -12.01418   14.53883  -14.50734
      H1   -11.16357   14.18787  -14.73341
       H   -10.14033    5.28517  -13.81536
       O    -9.75172    6.03084  -14.30882
      H1    -9.17266    5.72520  -15.03330
       H   -13.62510   11.10966  -19.40054
       O   -14.12671   11.60843  -18.71224
      H1   -14.51309   10.86986  -18.22744
       H   -15.44658    5.56748  -14.54051
       O   -15.43167    5.79654  -13.59112
      H1   -14.59935    6.28246  -13.35230
       H   -12.75138   11.00397  -14.90892
       O   -13.57420   11.41598  -14.67053
      H1   -13.60980   12.32937  -14.94920
       H    -7.57431    9.38897  -11.72026
       O    -7.88138    9.70618  -12.53000
      H1    -8.77652    9.38832  -12.66698
       H   -11.18009    9.18597  -14.55284
       O   -11.51318    9.39674  -15.46938
      H1   -10.79298    8.92486  -15.96879
       H   -17.56936    8.16566  -15.19263
       O   -16.78244    8.21593  -15.74781
      H1   -16.41643    9.11441  -15.81176
       H    -9.72219   15.29004  -15.93831
       O    -9.28298   14.89095  -15.11980
      H1    -9.15981   13.95154  -15.27219
       H   -11.77429   12.85391  -16.56279
       O   -12.38230   13.12287  -17.25860
      H1   -12.91398   12.41746  -17.62724
       H   -15.89402   11.57759  -16.54329
       O   -15.54665   10.67362  -16.59424
      H1   -14.79577   10.75184  -16.01313
       H    -7.04790    8.98726  -14.02199
       O    -6.81503    8.62686  -14.86915
      H1    -7.68411    8.46337  -15.31523
       H   -12.63264    3.50771  -17.41326
       O   -12.69150    3.51811  -16.44742
      H1   -12.31356    4.37544  -16.13151
       H   -10.63530    8.86193  -20.01189
       O   -10.99296    9.23044  -19.20786
      H1   -11.99556    9.15281  -19.28346
       H   -14.39648    8.56627  -19.78316
       O   -13.74480    8.49640  -19.04973
      H1   -14.08296    7.73339  -18.55605
       H   -12.44997    6.32903  -15.35858
       O   -11.75078    5.76902  -15.78502
      H1   -10.89940    5.88561  -15.37366
       H   -13.22520    8.32015  -16.09620
       O   -13.86798    7.59872  -16.03293
      H1   -14.71288    8.02617  -15.97014
       H    -9.89212   11.93136  -14.71288
       O   -10.49840   12.04232  -15.48710
      H1   -10.69905   11.09203  -15.78697

