78
frame 10 | Written by MDAnalysis XYZWriter (release 2.4.3)
       H    14.45546    4.19819  -18.72865
       O    15.04021    4.88990  -19.07694
      H1    15.63279    4.38382  -19.65654
       H    14.18376    1.27035  -15.03557
       O    14.43617    0.93508  -15.88611
      H1    15.33229    0.49828  -15.74186
       H    13.46039    2.14057  -18.82951
       O    14.03672    2.47989  -18.14841
      H1    14.01603    1.93876  -17.33251
       H    13.83455    6.79754  -16.08911
       O    14.48457    7.26754  -16.59439
      H1    15.20763    6.63400  -16.77668
       H    12.77489    3.52809  -12.04967
       O    13.20467    4.33458  -12.30497
      H1    14.15024    3.96841  -12.36755
       H    17.80966   -0.21754  -14.64907
       O    17.35704    0.42830  -15.20607
      H1    17.98280    0.56967  -15.92260
       H    12.63488    6.76200  -14.18847
       O    12.41113    6.38016  -15.09544
      H1    12.54406    5.42792  -14.97223
       H    13.98969    7.51718  -12.40670
       O    13.07100    7.67237  -12.64871
      H1    12.41414    7.34753  -12.04571
       H    15.08516    8.46663  -15.64575
       O    15.47682    9.01508  -14.95444
      H1    14.76534    9.57318  -14.64059
       H    19.15799   -0.91625  -13.19622
       O    18.61746   -1.54041  -13.69252
      H1    19.22561   -2.25769  -13.95841
       H    19.65608    0.75466   -9.01842
       O    19.59373    1.68271   -8.77676
      H1    18.88909    2.02828   -9.31018
       H    18.02906    5.27694  -11.95669
       O    18.97768    5.19841  -11.80584
      H1    19.22198    5.11936  -12.73810
       H    16.54461    7.76296  -12.56901
       O    15.83319    7.23289  -12.92813
      H1    15.57403    7.63817  -13.73770
       H    18.95177   -1.71233  -17.07203
       O    18.82148   -2.33702  -17.81169
      H1    18.59589   -1.78154  -18.57512
       H    17.15014    4.09417  -15.90869
       O    17.57188    3.63490  -15.14186
      H1    17.27232    2.67089  -15.23191
       H    13.17790    2.41558  -13.67825
       O    13.28014    1.53162  -13.36864
      H1    13.93337    1.58928  -12.65602
       H    18.62057    3.60334  -11.14850
       O    18.18521    2.74552  -11.04706
      H1    17.33640    2.81141  -11.52405
       H    13.20947    3.62250  -16.40933
       O    12.71573    3.62927  -15.61157
      H1    11.89978    3.18975  -15.89393
       H    19.70278    7.07029  -17.21531
       O    18.79888    7.35365  -16.95193
      H1    18.62447    8.06967  -17.57745
       H    15.53553    1.07282  -11.25160
       O    15.19543    1.96919  -11.34515
      H1    14.50795    1.90600  -10.67041
       H    13.66708    7.15247  -17.96978
       O    13.28536    7.12151  -18.85647
      H1    13.83124    6.41306  -19.20840
       H    14.29361   -1.96971  -14.47474
       O    13.53434   -1.43341  -14.01294
      H1    13.56616   -0.53617  -14.37405
       H    17.56594    6.04270  -16.95686
       O    16.77481    5.47965  -16.79857
      H1    16.50427    5.26398  -17.73352
       H    15.73658    5.45234  -12.88316
       O    15.96526    4.49007  -12.91561
      H1    16.57435    4.41170  -13.61763
       H    19.71158    0.90336  -17.81854
       O    18.84732    1.07309  -18.22238
      H1    18.94894    1.89459  -18.73241
       H    19.06487    3.43602  -14.44754
       O    19.94396    3.52592  -14.01627
      H1    20.20278    2.65104  -13.67474

