78
frame 10 | Written by MDAnalysis XYZWriter (release 2.4.3)
       H     5.75874    2.58837   11.43561
       O     5.33350    1.72064   11.63058
      H1     5.13738    1.84644   12.57433
       H     4.68645   -1.69241   12.70152
       O     4.66815   -2.32202   11.95377
      H1     5.14037   -1.88141   11.21381
       H     8.16566   -3.78865   12.33799
       O     8.44340   -3.95251   11.42386
      H1     8.01526   -4.72778   11.05340
       H     5.29938   -3.15717    8.87669
       O     6.14038   -2.92430    9.23883
      H1     6.42074   -3.71912    9.68576
       H    10.89790   -4.03999    6.46461
       O    11.20647   -3.45611    7.18989
      H1    12.14466   -3.48756    7.06454
       H    13.48819   -1.21643   11.82892
       O    12.80064   -0.69110   12.27577
      H1    11.95142   -0.74683   11.78959
       H     7.63888   -6.07960    6.47530
       O     8.07746   -5.62021    7.22677
      H1     8.98486   -5.96646    7.26959
       H     6.82264   -6.62973    9.89488
       O     7.15169   -5.70806    9.75786
      H1     7.26580   -5.64119    8.80012
       H    10.16859    0.18345   12.64210
       O    10.36467    0.14414   11.69476
      H1     9.62006   -0.19813   11.21611
       H     8.57319   -1.09941    9.52321
       O     8.21157   -1.16656   10.46113
      H1     8.26938   -2.08783   10.77520
       H     6.30255   -0.93518    9.72283
       O     5.63493   -0.23643    9.76891
      H1     5.86811    0.37134   10.52058
       H     7.52773   -4.87644   14.23191
       O     7.67262   -3.90210   14.25535
      H1     8.20029   -3.81389   15.06153
       H     4.88993   -3.98471   11.72871
       O     4.70062   -4.94050   11.66615
      H1     5.37201   -5.30947   11.02558
       H     9.19166   -2.15545    7.60262
       O     8.72438   -1.30870    7.71424
      H1     7.98087   -1.39609    7.11682
       H    13.04634   -2.44701    9.67535
       O    12.74376   -1.81417    8.99875
      H1    12.07668   -2.23024    8.57678
       H     7.10811   -0.82969   13.43493
       O     7.30780   -0.30596   14.18824
      H1     6.92158   -0.81195   14.87794
       H    11.01644    3.04456    9.76462
       O    11.19323    2.74320   10.67954
      H1    10.54869    2.07507   10.88948
       H    10.93000   -5.13178    7.76177
       O    10.81499   -6.11557    7.67423
      H1    11.03201   -6.37367    8.56936
       H     6.31418   -2.98684    7.31460
       O     6.60319   -2.90357    6.41349
      H1     7.20923   -3.65980    6.22517
       H    12.31744   -3.84363   11.59786
       O    13.25691   -3.46035   11.34631
      H1    13.76647   -3.54036   12.15785
       H     5.29862    0.87001    8.45435
       O     5.06016    1.34360    7.62689
      H1     5.22732    2.26265    7.65453
       H     8.94079    0.14477   14.34953
       O     9.88440    0.30959   14.52431
      H1     9.83215    1.19037   14.90968
       H     7.73745    2.56557    9.58640
       O     8.31337    1.86450    9.19899
      H1     7.95536    1.06485    9.62069
       H    10.13649   -4.83186   12.17000
       O    11.07544   -5.03500   12.35646
      H1    11.07890   -5.19921   13.31305
       H    10.87971   -1.45468   14.40184
       O    11.48563   -2.16941   14.24197
      H1    11.91054   -1.83709   13.41636
       H     9.77872   -0.89455    6.39239
       O    10.28653   -0.64036    5.58187
      H1     9.94414   -1.29788    4.94747

