78
frame 11 | Written by MDAnalysis XYZWriter (release 2.4.3)
       H     9.07991    5.10563   18.86595
       O     8.10186    4.84821   18.82409
      H1     8.01345    3.94320   19.11242
       H     8.05715    4.31286   17.26933
       O     8.11516    3.73213   16.44098
      H1     7.14849    3.57161   16.23487
       H     5.63031    5.62098   18.67321
       O     5.20652    5.27878   17.88026
      H1     4.89359    4.41754   18.18310
       H     2.15682   -0.13376   19.56191
       O     2.83991   -0.15108   18.84690
      H1     3.23377   -1.00184   19.08630
       H     3.64986    6.63098   18.55138
       O     2.98966    6.70128   19.23419
      H1     2.52331    7.53366   19.18030
       H     1.90808    5.76888   13.70408
       O     2.72027    5.39494   14.10582
      H1     2.64016    5.78890   14.96389
       H     6.20019   -0.75938   17.14719
       O     6.67268   -1.24561   16.42883
      H1     6.02332   -1.70794   15.89972
       H     0.72259    1.68017   16.60343
       O     0.67319    2.59653   16.24778
      H1     0.12897    3.08981   16.89595
       H    -1.44490    1.13668   19.83186
       O    -1.15493    0.29005   19.45314
      H1    -1.05711    0.46017   18.49643
       H     6.65712    6.03405   16.81025
       O     7.24481    6.33888   16.07190
      H1     7.72171    5.54048   15.88817
       H     4.91902   -0.94145   12.92992
       O     5.43876   -0.25372   13.45124
      H1     5.07344   -0.39926   14.33927
       H     1.38004   -0.19057   15.60521
       O     1.02714   -0.07236   16.49930
      H1     1.50295   -0.66019   17.11234
       H     6.43756    2.19448   15.14447
       O     5.83458    2.99721   15.08204
      H1     5.02859    2.76330   15.52246
       H     3.99703    2.89009   19.57049
       O     4.54584    2.70349   18.77487
      H1     4.84546    1.72989   18.79908
       H     6.30590    4.08716   13.67879
       O     6.53556    4.36319   12.76236
      H1     6.34288    5.28294   12.63535
       H     7.99939   -3.03926   19.00422
       O     7.90114   -3.10067   18.05358
      H1     7.37367   -2.31744   17.78918
       H    -1.58879    3.28471   19.06237
       O    -0.69885    3.37187   18.66934
      H1    -0.23133    3.86326   19.34489
       H     1.91944    5.70999   18.02610
       O     1.77361    5.57987   17.10458
      H1     2.02546    4.68178   16.99108
       H     2.49730    2.59755   16.33000
       O     3.46722    2.76571   16.33957
      H1     3.84771    2.48852   17.13867
       H     7.02744    0.40953   14.01700
       O     7.68691    0.77362   14.64901
      H1     7.55622    0.24759   15.47381
       H     0.89622    0.25967   13.07193
       O     1.56778    0.38822   13.76246
      H1     2.02750    1.23437   13.56062
       H     9.78463    1.45789   18.26754
       O     9.50952    1.37275   17.35322
      H1     9.01505    2.15640   17.05001
       H     4.60621   -0.24754   18.65621
       O     5.51359    0.05330   18.49699
      H1     6.16019   -0.30627   19.16283
       H     6.12208    8.06793   16.98133
       O     6.05255    8.79106   17.65693
      H1     6.81275    9.42323   17.66684
       H     3.82779    2.58621   12.99470
       O     2.87168    2.73646   13.12697
      H1     2.75485    3.52411   13.67486
       H     3.89450   -3.15436   18.73086
       O     3.80996   -2.57987   19.47157
      H1     3.14614   -3.01877   20.03416

