78
frame 11 | Written by MDAnalysis XYZWriter (release 2.4.3)
       H   -17.13499    7.41757    8.99921
       O   -16.64614    7.75652    9.79434
      H1   -17.23713    7.47377   10.53042
       H   -13.51961   10.63280   11.70597
       O   -14.24877   10.25902   12.20138
      H1   -15.07657   10.65691   11.94005
       H   -11.75211   13.70542   14.10461
       O   -11.90955   12.79234   13.96264
      H1   -11.14280   12.42950   13.61072
       H   -19.51448   11.31444    9.67173
       O   -18.60266   11.24793    9.44004
      H1   -18.01707   11.51867   10.14864
       H   -13.60703    9.82937    7.35463
       O   -12.97127    9.10813    7.50963
      H1   -12.93707    9.03263    8.45511
       H   -12.22105    6.97899    9.47140
       O   -12.17538    6.49910    8.64919
      H1   -12.39278    7.00421    7.87546
       H   -13.60049   11.97797   16.74658
       O   -13.85955   12.47171   15.93348
      H1   -13.03687   12.52024   15.38547
       H   -15.10610    7.30225   10.93285
       O   -14.47649    7.64962   11.57386
      H1   -14.77867    8.48409   11.89593
       H   -15.66062   13.36729   15.03029
       O   -16.29879   13.93770   14.58478
      H1   -16.98501   14.04674   15.23487
       H   -15.93524   10.89925    9.31061
       O   -15.49414   10.15850    8.83603
      H1   -15.84156    9.32327    9.12468
       H   -13.56633   16.07447   14.22022
       O   -14.45595   15.90636   13.79553
      H1   -14.81945   15.29893   14.39848
       H   -13.17047    7.55563   15.53490
       O   -13.16464    7.30095   14.59040
      H1   -13.10396    6.35554   14.57740
       H   -16.74533   10.36847   14.56721
       O   -17.58180   10.83641   14.59340
      H1   -17.64723   11.25642   15.46565
       H   -14.50505   10.48453   15.17065
       O   -14.93619    9.61472   15.30788
      H1   -14.39708    9.06178   14.70319
       H   -16.27431   12.45138   11.78401
       O   -16.80790   11.61471   11.86072
      H1   -17.21895   11.76149   12.75146
       H   -12.43208   13.69270   12.33393
       O   -12.53759   14.35815   11.59708
      H1   -12.34803   13.96273   10.75344
       H   -16.39215    6.15040   13.21542
       O   -15.63965    5.77623   13.74373
      H1   -14.95350    6.45690   13.65193
       H   -19.22250    7.79655   15.17964
       O   -18.51173    8.15123   14.59592
      H1   -18.44764    9.11673   14.66883
       H   -18.21925    6.39505   12.03226
       O   -17.71566    7.26126   12.27028
      H1   -17.95020    7.70463   13.08918
       H   -14.71590   14.36726   11.66890
       O   -15.46948   14.03149   11.17347
      H1   -16.16452   14.76515   11.14916
       H   -17.31208   14.70830   13.09927
       O   -18.07789   14.87327   12.55652
      H1   -18.26011   15.83675   12.46554
       H   -12.98701    8.06440   11.27103
       O   -12.12600    8.43855   10.96296
      H1   -11.34318    8.05761   11.40413
       H    -8.89222   13.28172   10.68831
       O    -9.71382   13.16430   10.16333
      H1   -10.16850   12.54277   10.80112
       H   -19.03594    9.63661   10.54661
       O   -19.38610    9.16855   11.28363
      H1   -18.60404    8.65821   11.58281
       H   -12.58878   11.72322   10.16656
       O   -11.81264   11.18109   10.40886
      H1   -12.00795   10.22961   10.48934
       H   -14.32026   13.45613    9.75110
       O   -13.44422   13.18728    9.34189
      H1   -13.57300   13.04419    8.44411

