78
frame 10 | Written by MDAnalysis XYZWriter (release 2.4.3)
       H     1.49858  -13.25520    8.31116
       O     1.97968  -12.47371    8.67142
      H1     2.00305  -11.77405    7.92515
       H     1.07237  -11.37199   11.69262
       O     1.29470  -12.33100   11.53936
      H1     1.11776  -12.41594   10.60164
       H     4.61766  -14.06739   11.00186
       O     5.23941  -14.47916   11.67236
      H1     5.74246  -15.13550   11.15326
       H    -0.38788  -13.34637    4.94463
       O     0.34803  -12.79518    5.26313
      H1     1.09871  -13.00671    4.74415
       H     6.18497  -11.33278    9.00640
       O     5.61491  -12.03525    8.60927
      H1     6.04437  -12.86398    8.69485
       H    -1.61809  -16.21111    9.24229
       O    -1.56845  -15.26154    9.17141
      H1    -2.07670  -14.87915    8.50240
       H     3.79091  -17.41340    8.31008
       O     3.53427  -17.40571    9.24707
      H1     4.02716  -18.15368    9.64900
       H    -3.55691  -12.26681    9.35016
       O    -4.06498  -12.92577    9.81374
      H1    -3.43571  -13.61272    9.99710
       H    -0.38670  -10.34902    7.55777
       O    -0.83923  -10.39930    6.71708
      H1    -0.27790  -10.96021    6.14098
       H     0.57763   -8.80391   12.08581
       O     1.08727   -9.51591   11.75066
      H1     2.00556   -9.27164   11.76305
       H     5.33438  -11.78889    5.70276
       O     4.59325  -12.15499    6.18551
      H1     4.95817  -12.20457    7.12274
       H     2.80163  -16.80745   12.18853
       O     2.91315  -16.14311   12.86750
      H1     3.70257  -15.66173   12.54042
       H    -0.25665  -12.80535   12.44858
       O    -1.20386  -12.72965   12.57329
      H1    -1.46037  -13.37224   11.91427
       H     4.45552   -7.99995    8.22387
       O     3.79302   -8.48115    8.78578
      H1     3.23591   -7.68025    9.05774
       H     0.27608   -9.53748   10.09789
       O    -0.13827   -9.50630    9.24097
      H1    -0.90648   -8.86650    9.35116
       H     0.13568  -14.73050    7.96649
       O     0.82633  -14.56511    7.32047
      H1     0.51280  -13.93039    6.70134
       H     4.11729   -8.91136   11.18617
       O     3.79375   -9.48504   11.94539
      H1     3.94563  -10.42758   11.60815
       H     0.99612   -7.68229    6.15407
       O     1.39463   -8.32322    5.53902
      H1     1.82784   -9.00363    6.12676
       H     3.36688  -10.69283    6.83227
       O     2.55017  -10.24027    7.06123
      H1     2.87888   -9.69601    7.78790
       H     3.51042  -15.52359    8.98890
       O     3.77290  -14.57578    9.02576
      H1     2.99810  -14.08713    8.67360
       H     4.11456  -12.42539   14.47570
       O     3.96070  -13.25896   14.05826
      H1     4.48829  -13.30360   13.29242
       H     3.61572  -13.53736    4.30092
       O     2.91946  -13.44832    3.68853
      H1     2.70913  -14.30670    3.28227
       H     1.06584  -16.11947    5.94054
       O     1.17936  -17.07594    5.77063
      H1     1.01842  -17.21231    4.79854
       H     6.78210  -15.02561    8.69745
       O     7.37935  -14.24450    8.81752
      H1     7.90333  -14.57207    9.54016
       H    -2.48648  -10.93435    7.10714
       O    -3.26275  -11.43405    7.42318
      H1    -3.97725  -10.84129    7.50133
       H     3.14402  -12.17744   11.10147
       O     4.05535  -11.93982   10.93586
      H1     4.26518  -12.07509    9.99805

