81
frame 1 | Written by MDAnalysis XYZWriter (release 2.4.3)
       H     9.50885   15.77764    2.05539
       O     8.74397   16.38370    1.83546
      H1     7.98407   16.06778    2.35181
       H     6.82693   11.79005    4.02441
       O     7.27590   11.30220    3.34420
      H1     6.63158   11.20938    2.63410
       H     3.37149   20.05483    5.63680
       O     3.27498   19.10037    5.49809
      H1     4.16705   18.78503    5.19979
       H     7.70707   19.60461    7.50441
       O     6.76517   19.44414    7.47914
      H1     6.42183   19.42270    8.36496
       H     2.29125   14.68381    7.25489
       O     2.79693   15.23597    7.85373
      H1     2.59314   16.14748    7.68287
       H     1.46456   17.85822    3.73276
       O     1.39725   17.44914    4.57718
      H1     2.19276   17.85818    5.02164
       H     3.49552   14.86510    1.26139
       O     3.52950   15.43290    0.39687
      H1     3.95751   16.28421    0.57497
       H     7.91810   16.15383   -1.33202
       O     8.45457   15.71014   -0.68878
      H1     8.19562   16.17290    0.13028
       H     5.51971   18.51427   -1.32972
       O     5.00017   18.88215   -0.62228
      H1     4.16951   18.83274   -1.11142
       H     9.98415   14.21249    4.95451
       O    10.43586   13.36339    4.70201
      H1    11.41958   13.61472    4.88091
       H     8.98171   19.41707    3.42565
       O     8.31796   19.64054    4.08989
      H1     8.35100   18.89781    4.76057
       H     9.31184   15.96391    8.42451
       O     8.60766   15.48641    7.94122
      H1     8.79070   14.53057    8.15363
       H     8.81603   15.32090    6.28000
       O     8.96332   15.54174    5.34179
      H1     8.09664   15.62047    4.88399
       H     5.49861   16.27925    3.37640
       O     6.27298   15.67027    3.60850
      H1     5.81149   14.80055    3.67386
       H     4.15810   12.03045    3.51887
       O     4.45011   11.43892    4.22360
      H1     3.83467   10.68458    4.16858
       H     4.66061   12.02469    5.98125
       O     4.78294   12.12891    6.90276
      H1     5.58059   11.61667    7.03433
       H     5.90160   19.74796    1.73434
       O     5.53412   19.40529    2.55950
      H1     6.28676   19.04533    3.01905
       H    10.95835   18.07640    6.92898
       O    10.85095   17.72004    6.00665
      H1    10.12691   17.10985    5.99007
       H     9.90086   18.34697    0.63947
       O    10.40663   19.19837    0.53966
      H1     9.64543   19.83841    0.54173
       H     4.55136   18.03371    2.70013
       O     4.05303   17.21678    2.83669
      H1     3.22210   17.34550    2.41468
       H     6.71569   15.26137    8.96461
       O     5.91510   14.86287    9.32488
      H1     5.45551   14.71883    8.55248
       H     5.13858   13.97065    6.44838
       O     5.14282   14.97367    6.51997
      H1     4.46559   15.12399    7.26061
       H     7.60139   13.59933    0.61158
       O     6.63568   13.70093    0.44852
      H1     6.55246   14.67432    0.50110
       H    12.26687   15.33148    2.69338
       O    11.36881   15.28896    2.24055
      H1    11.29714   14.33621    2.17658
       H     5.83811   16.93118    5.72234
       O     5.87517   17.87685    5.51513
      H1     6.05080   18.38630    6.32118
       H     9.47079   13.48481    3.04289
       O     8.92251   13.18226    2.32471
      H1     8.35698   12.55593    2.78838
       H     5.24984   13.34939    1.64282
       O     4.41143   13.34356    2.13539
      H1     3.84344   12.72345    1.64402

