81
frame 1 | Written by MDAnalysis XYZWriter (release 2.4.3)
       H    -5.96793  -16.92472   11.77643
       O    -6.07964  -16.36979   10.93530
      H1    -6.57507  -16.83829   10.20785
       H    -5.49731  -16.06603   14.60038
       O    -4.98244  -16.48237   13.88801
      H1    -4.80624  -15.69891   13.25681
       H     0.32616  -12.32039   11.33431
       O     0.08798  -12.93277   10.60934
      H1    -0.42893  -12.32965   10.14093
       H    -5.84409  -17.49162    6.68293
       O    -5.76379  -17.02407    5.83084
      H1    -6.04156  -17.66318    5.19552
       H    -7.44021  -12.00438    5.43479
       O    -7.16587  -11.60574    4.58761
      H1    -7.86233  -11.74232    3.95435
       H    -8.22176  -12.15842   10.00550
       O    -7.54282  -12.62512   10.58494
      H1    -7.64442  -12.18688   11.49929
       H    -7.98792  -14.04656   11.95223
       O    -7.78847  -14.80466   12.44551
      H1    -7.35428  -15.39856   11.83449
       H    -4.80048   -9.55769    6.91253
       O    -4.33907   -9.72246    6.06768
      H1    -4.63832  -10.55893    5.64576
       H    -3.33983   -9.88040   11.38436
       O    -2.86448  -10.45883   10.79174
      H1    -3.60172  -10.74786   10.19551
       H    -3.85365  -17.31482    5.14436
       O    -2.90256  -17.39549    5.38186
      H1    -2.50485  -17.85816    4.66257
       H    -2.61343  -11.71212   11.86983
       O    -2.54050  -12.34195   12.64255
      H1    -3.27913  -12.94818   12.69254
       H    -4.75797  -15.40171   10.33761
       O    -4.01757  -14.78352   10.05012
      H1    -3.14263  -15.19873   10.09115
       H    -4.32724  -14.33586   11.59322
       O    -4.60845  -14.01393   12.49381
      H1    -5.41345  -13.49793   12.36644
       H    -6.84899  -18.67863    8.42143
       O    -6.29377  -17.96216    8.83116
      H1    -5.41731  -18.24149    9.01250
       H    -2.53657  -17.58507    8.57251
       O    -3.45992  -17.39537    8.39381
      H1    -3.42027  -17.11914    7.46224
       H     0.23892  -10.75453    8.28823
       O    -0.58722  -11.22616    8.35859
      H1    -0.34808  -11.88341    7.69435
       H    -2.74359   -9.23177    6.64648
       O    -1.87719   -8.84298    6.99283
      H1    -1.59080   -9.66633    7.42991
       H    -2.77339  -15.31114    6.07607
       O    -3.07878  -14.46170    5.84458
      H1    -3.94890  -14.58617    5.41363
       H    -5.88152  -12.98689    4.27297
       O    -5.15339  -13.63868    4.02405
      H1    -5.74295  -14.26251    3.52032
       H    -0.95876  -13.88536   12.95469
       O    -0.68617  -14.83287   12.98557
      H1    -0.78325  -15.26988   12.12286
       H    -4.62617   -8.06724    8.38292
       O    -5.35089   -8.69563    8.26131
      H1    -5.03109   -9.43508    8.82103
       H    -9.22069  -15.13120    9.16866
       O    -8.27802  -15.26560    9.34516
      H1    -7.87831  -14.40580    9.51490
       H    -1.92036  -13.33488    3.15369
       O    -1.69244  -14.21513    3.46883
      H1    -2.30289  -14.35749    4.23447
       H    -4.13415  -13.91135    8.64922
       O    -4.38219  -13.36106    7.90472
      H1    -3.71258  -13.61857    7.23389
       H    -7.04776  -13.59223    7.09129
       O    -7.12316  -12.60694    7.04144
      H1    -6.28672  -12.34149    7.44846
       H    -5.75819  -11.68559    9.92084
       O    -5.07232  -11.32401    9.27347
      H1    -4.75390  -12.14302    8.75137
       H    -0.61656  -16.44027   10.14295
       O    -1.15575  -15.68171   10.37080
      H1    -0.73908  -14.79624   10.30565

