81
frame 1 | Written by MDAnalysis XYZWriter (release 2.4.3)
       H     0.63256  -11.98115   -6.31925
       O    -0.22835  -12.33995   -6.50846
      H1    -0.66289  -12.74792   -5.70409
       H     1.89004  -18.92018   -2.79891
       O     2.54178  -19.34829   -2.19950
      H1     2.43249  -18.82866   -1.36327
       H    -0.00856  -16.29803    1.69115
       O     0.94914  -16.37683    1.87183
      H1     1.46401  -15.59035    1.67377
       H    -1.27084  -18.69174   -7.41947
       O    -0.87623  -19.16265   -8.20856
      H1    -1.57005  -19.82533   -8.31725
       H    -4.12108  -17.31127   -4.18453
       O    -3.30499  -16.84121   -4.14338
      H1    -3.01561  -16.66495   -5.06612
       H    -5.89438  -20.06813   -1.69019
       O    -6.17342  -19.55224   -0.91765
      H1    -6.61519  -18.75566   -1.34915
       H    -2.35107  -14.58626   -4.19441
       O    -1.87547  -13.76382   -4.43275
      H1    -2.48905  -13.06097   -4.65756
       H     0.67964  -12.89408   -3.87358
       O     1.34313  -12.25091   -3.66682
      H1     0.86181  -11.62456   -3.12577
       H    -1.99446  -18.86126    2.37157
       O    -1.90853  -19.44306    3.15124
      H1    -0.97949  -19.29514    3.29723
       H     0.66647  -18.56492   -4.71454
       O     0.35145  -18.98104   -3.94914
      H1    -0.20025  -18.38962   -3.46283
       H    -4.51543  -13.98107   -6.20418
       O    -4.72407  -14.79919   -5.74320
      H1    -5.37810  -14.65449   -5.05748
       H    -5.61553  -15.20137   -0.71294
       O    -4.95465  -14.69976   -1.19857
      H1    -4.14259  -15.24292   -1.07432
       H    -5.67311  -18.93306   -3.67284
       O    -5.61678  -18.38940   -4.41878
      H1    -6.47822  -17.93973   -4.58663
       H    -5.11009  -18.63873    0.31400
       O    -4.33676  -18.48807    0.92867
      H1    -4.59193  -18.00278    1.74723
       H    -1.39555  -14.58520   -1.57100
       O    -2.12379  -15.16907   -1.33268
      H1    -1.91636  -16.02513   -1.74006
       H    -3.05134  -17.12757   -7.39390
       O    -2.35374  -17.25182   -6.68267
      H1    -1.56254  -16.70888   -6.94304
       H    -2.01052  -15.56803    0.69328
       O    -1.83649  -16.18594    1.44674
      H1    -1.68365  -15.59365    2.19043
       H    -6.77886  -14.23467   -3.14589
       O    -6.34772  -14.95531   -3.62145
      H1    -5.50246  -15.10559   -3.09965
       H    -3.72402  -16.23629    2.21558
       O    -4.31771  -16.58377    2.90153
      H1    -5.17136  -16.18593    2.66563
       H     3.45770  -17.61302   -2.54694
       O     3.61358  -16.63387   -2.48868
      H1     4.51179  -16.51069   -2.67120
       H     0.87674  -18.92784   -7.44720
       O     1.72833  -18.95230   -6.99874
      H1     2.22011  -18.11669   -7.05278
       H     2.62862  -15.73969   -1.08487
       O     2.09048  -14.91290   -1.08662
      H1     2.65936  -14.15152   -0.78755
       H    -2.22190  -17.58046   -3.05701
       O    -1.47286  -17.82095   -2.53040
      H1    -1.76185  -18.40429   -1.84638
       H     3.10677  -15.65257   -3.90141
       O     2.67422  -15.33106   -4.65173
      H1     2.05790  -14.70670   -4.29985
       H     1.97333  -17.67157    0.80535
       O     2.65562  -18.26817    0.47755
      H1     3.44548  -17.87437    0.82942
       H     1.02813  -15.95496   -7.55388
       O     0.09033  -15.64539   -7.69043
      H1    -0.19932  -16.08384   -8.48737
       H    -8.07064  -17.58395   -2.57618
       O    -7.22973  -17.21553   -2.28031
      H1    -7.01379  -16.49068   -2.94163

