81
frame 1 | Written by MDAnalysis XYZWriter (release 2.4.3)
       H    -6.21608    6.24781   -5.27665
       O    -6.05543    5.30251   -5.40957
      H1    -6.45837    4.88785   -4.61639
       H   -12.97995    7.57498   -5.56297
       O   -12.21220    7.88324   -5.13989
      H1   -12.38740    8.02146   -4.20261
       H    -6.96365    6.66656   -8.46610
       O    -7.52548    7.04962   -7.73680
      H1    -8.40263    6.69214   -7.75489
       H   -10.20189    5.83703   -7.84641
       O    -9.97899    5.98202   -8.77262
      H1    -9.80838    5.11163   -9.09105
       H    -8.56987    2.93001   -4.44473
       O    -7.87996    3.27852   -3.83067
      H1    -7.93505    2.60218   -3.10289
       H   -11.10377    5.49376   -5.65595
       O   -10.17271    5.57685   -5.84222
      H1    -9.91128    6.34483   -5.30867
       H    -5.52579    9.71118   -8.27543
       O    -6.29563   10.15363   -7.90566
      H1    -7.06853    9.89073   -8.41041
       H    -7.99630    8.31371   -8.88985
       O    -8.33470    8.99396   -9.50904
      H1    -9.25752    9.10196   -9.22247
       H    -9.77466    3.65271   -5.90151
       O    -9.33015    2.81846   -6.04979
      H1   -10.00407    2.13341   -5.93890
       H    -3.16002    7.28964   -6.59639
       O    -3.01872    8.22897   -6.43434
      H1    -3.34338    8.57798   -7.29588
       H    -7.29458   11.10823   -4.89474
       O    -7.91003   11.78480   -5.22313
      H1    -8.34329   11.54862   -6.09275
       H    -5.83701    2.09421   -7.35518
       O    -5.60678    1.13432   -7.12207
      H1    -5.27292    1.14051   -6.25084
       H   -10.85033    6.46985  -12.98394
       O   -11.01566    6.34449  -12.05557
      H1   -10.25644    6.28055  -11.48411
       H    -7.77092    3.41910   -7.10137
       O    -6.87425    3.68737   -7.41979
      H1    -6.56385    4.24013   -6.68409
       H    -7.48334    6.76983  -14.23739
       O    -8.23148    7.39025  -14.08467
      H1    -8.43038    7.29174  -13.14407
       H    -9.72064    3.38011  -10.79821
       O    -9.10086    3.40671  -10.03682
      H1    -9.36683    2.68756   -9.45107
       H   -12.91215    7.19151  -10.52718
       O   -12.83875    6.96700   -9.60463
      H1   -11.91641    6.78120   -9.48083
       H    -4.47929    5.11103   -6.34174
       O    -3.63249    5.35788   -6.79225
      H1    -2.96166    4.81684   -6.31278
       H   -10.35787   10.63343   -7.45045
       O    -9.70585   11.38722   -7.49858
      H1   -10.31786   12.13159   -7.59876
       H    -7.49704    5.83460   -2.13985
       O    -8.42623    5.69219   -2.25322
      H1    -8.41175    4.90364   -2.84341
       H    -5.39203    5.78647  -10.02136
       O    -6.24249    5.61566   -9.61074
      H1    -6.08507    4.92860   -8.93724
       H   -11.53521    9.12498   -8.03884
       O   -10.61865    8.95913   -7.85873
      H1   -10.66047    8.54949   -6.99957
       H    -7.43760    6.52183  -10.76299
       O    -8.28591    6.82170  -11.21460
      H1    -8.58720    7.59124  -10.83156
       H    -7.34396    3.21406  -10.49656
       O    -6.58948    2.63506  -10.63124
      H1    -6.29919    2.81846  -11.51610
       H    -8.66090    6.78155   -3.48795
       O    -8.72988    7.37980   -4.27535
      H1    -9.06285    8.24601   -3.97121
       H    -7.79212   11.78928  -10.65412
       O    -7.46226   10.98547  -11.12517
      H1    -7.80802   10.24131  -10.60096
       H    -7.34800    7.75945   -5.18124
       O    -6.45807    8.14138   -5.11104
      H1    -6.23069    8.43356   -6.02609

