81
frame 1 | Written by MDAnalysis XYZWriter (release 2.4.3)
       H    -5.35617   -3.58093  -11.00131
       O    -5.04454   -4.09350  -10.20332
      H1    -4.15544   -3.91909  -10.05128
       H    -4.05781   -2.11215   -6.39017
       O    -3.54204   -1.72486   -7.09235
      H1    -4.08694   -1.27089   -7.75100
       H    -9.12746   -1.57939   -7.65802
       O    -9.41596   -2.13705   -8.41563
      H1    -8.73085   -2.03545   -9.14785
       H    -3.21990   -5.56688   -5.53382
       O    -4.11938   -5.73084   -5.20623
      H1    -4.49568   -6.49743   -5.72399
       H    -4.85749   -1.85709   -3.71987
       O    -4.24171   -2.54811   -4.01516
      H1    -3.44219   -2.00904   -3.92266
       H    -1.16436   -5.39747   -6.28798
       O    -1.50389   -4.72861   -5.66519
      H1    -0.85351   -4.59936   -4.89679
       H    -1.06620   -3.25611   -6.30109
       O    -1.00271   -2.27201   -6.45089
      H1    -1.97169   -2.06012   -6.67062
       H    -9.60395   -7.32784   -5.42494
       O    -9.36147   -7.52429   -4.48841
      H1    -9.80267   -6.77428   -4.03698
       H    -5.97899   -5.53828   -9.15460
       O    -6.09145   -6.34501   -8.72550
      H1    -6.73016   -6.07768   -8.03029
       H    -7.81302   -2.72100   -3.80236
       O    -7.36110   -2.17063   -4.43966
      H1    -6.68429   -2.69318   -4.92879
       H    -5.83701    2.09421   -7.35518
       O    -5.60678    1.13432   -7.12207
      H1    -5.27292    1.14051   -6.25084
       H   -10.09678   -6.38940   -7.48836
       O   -10.16863   -7.27493   -7.12449
      H1   -10.75027   -7.72372   -7.72062
       H    -1.39905   -4.21724   -9.62324
       O    -2.13577   -4.02890   -9.06393
      H1    -1.80724   -3.47772   -8.35980
       H    -7.43135   -2.77754  -10.74642
       O    -7.46988   -1.94982  -10.24952
      H1    -7.72730   -1.30478  -10.96486
       H    -8.39833   -7.35617  -10.74560
       O    -8.41768   -6.89411   -9.90980
      H1    -7.49363   -7.08596   -9.57577
       H    -7.62846   -7.41833   -3.97787
       O    -6.70811   -7.23788   -3.90299
      H1    -6.26276   -7.50153   -4.71837
       H    -5.33461   -7.39773   -7.15770
       O    -5.58278   -7.79520   -6.29419
      H1    -5.77181   -8.73498   -6.57994
       H    -6.17639   -5.33527   -3.48983
       O    -6.15837   -4.51772   -3.01737
      H1    -5.42886   -3.94603   -3.30991
       H    -6.86633   -0.04115   -6.64265
       O    -7.71138   -0.47453   -6.49023
      H1    -7.48461   -1.25713   -5.92917
       H    -5.66855    0.64096   -3.83530
       O    -5.64939   -0.22313   -3.40554
      H1    -6.37411   -0.72596   -3.82621
       H    -1.18333   -0.47788   -8.91634
       O    -1.29382   -1.17623   -9.58831
      H1    -1.83366   -1.84697   -9.12570
       H    -4.29877   -5.75769  -10.91098
       O    -3.93478   -6.26508  -11.64076
      H1    -4.05618   -5.80448  -12.48949
       H    -9.45642   -3.89236   -8.24231
       O    -9.65129   -4.83873   -8.15358
      H1    -9.23186   -5.32980   -8.83617
       H    -1.97992   -7.75764   -5.93894
       O    -2.31420   -7.88572   -5.07523
      H1    -2.89549   -7.10824   -4.85982
       H    -4.12955   -5.55711   -0.57388
       O    -5.01591   -5.92114   -0.70642
      H1    -5.28725   -5.42350   -1.44053
       H    -5.72577    0.08196   -8.92558
       O    -5.30568   -0.56587   -9.49680
      H1    -6.05358   -1.16854   -9.64124
       H    -5.43887   -4.50035   -5.96681
       O    -5.74531   -3.82741   -6.60271
      H1    -5.12290   -3.94895   -7.32092

