81
frame 1 | Written by MDAnalysis XYZWriter (release 2.4.3)
       H    16.80882   14.26557   -6.82960
       O    16.33296   14.68148   -6.11521
      H1    15.37322   14.55307   -6.31519
       H    18.08179   16.87544   -7.57676
       O    17.13834   16.88149   -7.63042
      H1    16.84764   16.20824   -6.96721
       H    17.11766   15.60098  -12.11121
       O    16.82973   15.88495  -11.24799
      H1    16.37434   15.15499  -10.82871
       H    13.89711   18.43124   -5.62936
       O    13.96712   18.09999   -6.50309
      H1    13.14818   17.61947   -6.68684
       H    18.55695   13.92057   -4.03341
       O    18.95268   14.55254   -3.45157
      H1    19.87758   14.19860   -3.33726
       H    13.63171   12.08925  -10.75454
       O    13.98917   12.96733  -10.94345
      H1    13.43891   13.64882  -10.55750
       H    16.05845   12.99862  -11.07247
       O    16.97963   12.71618  -10.91858
      H1    17.09525   12.97860   -9.99160
       H    14.81815   11.66343   -8.85065
       O    15.08367   12.22937   -8.10474
      H1    14.99473   13.15411   -8.35322
       H    18.81965   11.30350   -4.27526
       O    18.38513   11.44262   -3.41241
      H1    17.47913   11.48533   -3.59494
       H    12.20529   14.31175   -8.97239
       O    12.57221   14.92593   -9.65036
      H1    11.97058   14.97112  -10.38478
       H    14.93654   18.72789   -2.55613
       O    14.23468   18.67933   -3.20118
      H1    14.30592   17.72354   -3.41046
       H    11.09370   16.76950   -6.11005
       O    11.49880   16.22779   -6.80464
      H1    11.86531   15.56196   -6.22243
       H    15.86334   18.49467   -0.55163
       O    15.90767   19.39142   -0.93922
      H1    16.64822   19.35596   -1.59250
       H    15.67571   17.29435  -11.40827
       O    15.38730   18.25005  -11.40166
      H1    15.21258   18.35956  -10.46765
       H    18.85108   19.81268  -11.24355
       O    19.26210   19.16588  -11.82425
      H1    18.60236   18.47842  -11.98969
       H    19.04427   10.86395   -7.06372
       O    18.29709   10.64816   -7.67593
      H1    17.68042   10.15590   -7.15941
       H    15.49736   19.43372   -8.30011
       O    16.40798   19.48368   -8.10194
      H1    16.71394   18.57868   -7.78912
       H    18.25887   12.48366   -8.29617
       O    18.14778   13.44137   -8.39588
      H1    18.66100   13.58079   -9.25831
       H    14.29239   15.23744   -9.14297
       O    15.20102   15.04193   -8.96455
      H1    15.66284   15.86245   -8.85592
       H    18.47250   14.91583  -10.88331
       O    19.26652   14.71900  -10.37337
      H1    19.34015   15.49387   -9.79914
       H    14.87916   11.57615   -4.91958
       O    14.14158   11.69014   -5.53030
      H1    14.56836   11.91812   -6.37337
       H    14.39110   16.59621   -5.52440
       O    14.56956   16.27303   -4.66482
      H1    13.80495   15.70837   -4.39536
       H    19.10970   16.01852  -13.52894
       O    18.12033   15.78461  -13.64017
      H1    18.14251   14.99872  -14.22937
       H    19.18024   11.09671  -12.48997
       O    18.57611   11.73605  -12.98020
      H1    18.01453   12.07340  -12.24442
       H    17.44552   17.46119   -2.27069
       O    17.92358   18.22062   -2.72848
      H1    18.85003   18.06583   -2.39846
       H    16.37471   16.03565   -3.01675
       O    16.77441   15.80343   -2.12888
      H1    17.66182   15.48421   -2.39006
       H    13.22021   13.31348   -5.12006
       O    12.73201   14.13014   -5.03271
      H1    12.12319   13.99593   -4.32030

