81
frame 2 | Written by MDAnalysis XYZWriter (release 2.4.3)
       H   -16.95272   -5.96342   -2.45806
       O   -17.79934   -6.28747   -2.08374
      H1   -18.46354   -6.04307   -2.66072
       H   -16.71445  -11.49030    0.26361
       O   -17.14509  -11.27876   -0.58209
      H1   -18.02353  -11.70815   -0.39161
       H   -16.29478   -6.73907    1.51913
       O   -15.68441   -7.38418    1.14173
      H1   -16.03641   -7.59467    0.29909
       H   -17.44545   -5.06781   -6.94641
       O   -17.94736   -5.44245   -6.21744
      H1   -18.20209   -4.69900   -5.67653
       H   -16.39837   -9.33613    3.55111
       O   -15.86943   -9.78160    2.89922
      H1   -16.00743   -9.17876    2.18382
       H   -18.94766   -3.22657   -0.33890
       O   -18.30177   -3.39153    0.41832
      H1   -18.26523   -2.51725    0.79260
       H   -14.85889   -5.79100   -3.22134
       O   -15.60936   -5.66100   -3.81710
      H1   -15.62156   -6.43709   -4.37800
       H   -12.86895   -3.34572   -1.24861
       O   -12.07636   -2.77596   -1.49499
      H1   -11.74280   -2.49292   -0.62406
       H   -15.94093   -4.06496   -4.13423
       O   -16.29809   -3.16159   -3.91268
      H1   -15.54356   -2.55728   -4.20959
       H   -16.18909   -1.38973   -0.00147
       O   -16.42632   -0.90328    0.81959
      H1   -15.73952   -1.21309    1.46723
       H   -18.92699   -6.70264    0.11265
       O   -19.31269   -6.01473    0.71085
      H1   -18.83727   -5.23342    0.38099
       H   -18.86588   -7.73123   -8.15862
       O   -18.18091   -8.31900   -7.85688
      H1   -18.17913   -8.25201   -6.88507
       H   -18.55970   -2.99599   -6.05223
       O   -18.76694   -2.95914   -5.08270
      H1   -17.92015   -2.96881   -4.61424
       H   -14.91123   -4.38295    3.16957
       O   -15.26040   -3.91639    2.39167
      H1   -14.78481   -4.07789    1.56840
       H   -16.06750   -8.49502   -5.04403
       O   -15.37711   -7.97488   -5.52327
      H1   -15.44535   -8.32019   -6.40041
       H   -13.03333   -9.54572   -5.17542
       O   -13.02966   -8.88729   -4.48638
      H1   -13.91207   -8.53249   -4.68310
       H   -11.66671   -7.97322   -3.38045
       O   -10.79264   -7.93007   -2.93532
      H1   -10.10422   -8.11892   -3.58333
       H   -17.71447  -10.96096   -5.34836
       O   -17.27147  -10.82719   -4.48280
      H1   -17.68932  -10.05427   -4.18399
       H   -12.04538   -4.61735   -4.56324
       O   -12.01961   -4.62329   -3.59127
      H1   -11.62986   -3.82053   -3.31469
       H   -18.12765   -9.71869   -0.48493
       O   -18.84900   -9.08555   -0.61327
      H1   -18.52218   -8.58959   -1.41516
       H   -16.36743   -2.67859   -2.07351
       O   -16.27596   -2.82146   -1.11277
      H1   -17.10410   -3.10145   -0.69832
       H   -12.76980   -6.39706   -1.30402
       O   -13.39848   -6.02430   -1.88575
      H1   -12.90996   -5.30092   -2.37790
       H   -19.18367   -7.84409   -4.91121
       O   -18.25174   -7.88175   -5.04495
      H1   -18.07086   -6.97267   -5.41413
       H   -17.83659   -5.50824    2.55981
       O   -17.31751   -6.23982    2.90678
      H1   -17.26254   -6.02866    3.91233
       H   -12.74293   -9.56888   -1.28688
       O   -12.76414   -9.88416   -0.39307
      H1   -13.25738  -10.73454   -0.51317
       H   -13.92892   -7.54457    1.21296
       O   -12.98520   -7.70265    1.20425
      H1   -12.95291   -8.56087    0.74858
       H   -13.87769   -4.89633   -0.63612
       O   -13.96821   -3.97254   -0.26723
      H1   -14.77616   -3.52806   -0.56401

