81
frame 2 | Written by MDAnalysis XYZWriter (release 2.4.3)
       H     0.66999  -12.26809   11.58412
       O     0.29534  -12.89874   10.93764
      H1     0.13761  -12.39508   10.11907
       H     0.60112   -7.37270   14.28822
       O     1.28094   -6.78909   14.68998
      H1     2.10443   -7.06375   14.31501
       H    -1.21822  -16.49078   14.79303
       O    -1.85164  -17.20667   14.59471
      H1    -2.73628  -16.82030   14.45512
       H    -1.91676  -11.83494   18.56612
       O    -2.80821  -11.47038   18.76511
      H1    -2.82711  -10.55715   18.40057
       H    -0.89470   -9.93874   11.18800
       O    -0.48566   -9.08184   11.00874
      H1     0.40360   -9.40234   10.74669
       H    -1.67904  -15.52529   17.54762
       O    -2.46321  -15.85759   17.19728
      H1    -2.20224  -16.26935   16.38836
       H     0.09270  -13.41516   18.71965
       O    -0.04200  -12.42403   18.59087
      H1     0.41395  -12.32411   17.74450
       H    -3.44324  -10.60299   11.81041
       O    -2.74279  -11.09734   11.33846
      H1    -3.28818  -11.64726   10.69132
       H    -2.52559  -12.14889   12.69178
       O    -2.47622  -12.92495   13.28992
      H1    -3.34399  -13.30256   13.25582
       H    -4.07485  -12.55957   15.77665
       O    -3.60854  -11.71299   15.67275
      H1    -3.11148  -11.84615   14.88167
       H    -3.34060   -8.61360   16.99695
       O    -3.26743   -8.83051   17.94845
      H1    -2.40058   -8.58262   18.22445
       H    -3.85092   -8.95195   13.73784
       O    -3.86797   -9.27426   12.86664
      H1    -3.45441   -8.50329   12.40771
       H     0.08701  -11.73078   15.46361
       O    -0.34421  -11.37299   14.69902
      H1    -0.97488  -12.01470   14.39833
       H    -0.68726   -8.49387   13.08061
       O    -0.54001   -8.46117   14.01627
      H1    -0.45730   -9.32357   14.41926
       H     4.28648  -10.76996   14.77701
       O     4.42922  -10.45128   13.84893
      H1     3.55245  -10.70029   13.54162
       H     1.14022  -11.42444   13.73017
       O     1.94522  -11.47419   13.17179
      H1     2.29397  -12.33582   13.48225
       H     3.32825  -10.60572   17.06075
       O     3.72375  -11.27540   16.44792
      H1     3.96888  -12.00492   17.08229
       H    -0.87390  -13.85049   13.15614
       O    -0.33907  -14.65041   13.25170
      H1    -0.51390  -15.23240   12.53065
       H    -5.23915  -10.91594   15.46895
       O    -6.18302  -10.73687   15.23989
      H1    -6.64749  -11.12444   16.00121
       H     2.04403  -10.25579   11.13149
       O     1.90224   -9.97912   10.21032
      H1     2.57013   -9.29100    9.97103
       H     2.75631  -15.05281   13.46258
       O     2.33811  -14.32013   13.97056
      H1     1.39460  -14.28096   13.64320
       H    -3.45689   -6.61789   15.15886
       O    -3.14905   -7.52507   15.27230
      H1    -2.47414   -7.72899   14.55994
       H    -0.49597   -7.15557   17.65130
       O    -0.53232   -8.05319   17.94360
      H1     0.23030   -8.57060   17.57140
       H     5.63654  -13.01632   13.97961
       O     5.30634  -13.38312   14.79861
      H1     4.40708  -13.10253   14.92205
       H     1.42466   -8.30751   16.02308
       O     1.78512   -9.00999   16.67916
      H1     2.58221   -8.61842   17.07722
       H    -0.01572  -15.91049   10.47069
       O    -0.82451  -15.53950   10.82672
      H1    -0.78186  -14.58858   10.83918
       H     1.58850  -13.39764   15.75777
       O     1.34048  -12.58619   16.24086
      H1     2.10528  -12.04355   16.29628

