81
frame 1 | Written by MDAnalysis XYZWriter (release 2.4.3)
       H   -15.83312   12.50929   17.88839
       O   -15.97561   11.61471   17.50933
      H1   -15.73731   11.07498   18.31360
       H   -18.22013    5.64581   19.45976
       O   -17.42765    6.11456   19.88326
      H1   -17.30546    6.84336   19.30164
       H   -10.56908    5.93250   13.73452
       O   -11.05736    6.07382   14.53677
      H1   -11.19534    7.02730   14.64132
       H   -12.32067    8.47599   13.01915
       O   -12.79697    8.02213   12.33020
      H1   -12.91819    7.08412   12.64551
       H   -13.10635    3.56947   17.22548
       O   -12.22466    3.18352   17.25448
      H1   -11.87899    3.35379   18.16457
       H   -14.38240   12.46218   16.19847
       O   -13.88788   13.07237   15.59753
      H1   -14.54708   13.31851   14.90309
       H   -14.00333    5.36199   14.00391
       O   -13.47223    5.15469   13.21927
      H1   -12.54624    5.37415   13.55785
       H   -18.81385    4.68618   15.20259
       O   -18.05606    4.79784   14.59653
      H1   -17.46597    4.03318   14.88852
       H   -15.45859    2.72492   15.68415
       O   -14.91054    3.48237   15.50130
      H1   -14.26969    3.14700   14.77429
       H   -17.51964    6.40051   14.31238
       O   -17.37616    7.31386   14.61733
      H1   -16.87142    7.76940   13.92909
       H   -10.61442   11.98453   16.79765
       O   -10.91626   12.53910   16.09960
      H1   -11.83186   12.21912   15.91256
       H   -13.99884   10.49634   14.95786
       O   -13.41763   10.12301   15.59096
      H1   -14.10821    9.58144   16.06882
       H   -17.73582    7.80310   16.56316
       O   -18.19249    8.04389   17.36808
      H1   -18.27643    9.01345   17.33397
       H   -12.99894    6.58847   16.95159
       O   -13.02756    7.40915   17.53156
      H1   -12.10999    7.45660   17.77394
       H   -11.61727   13.52668   17.53819
       O   -11.92964   13.72289   18.44780
      H1   -11.14927   13.98921   18.95654
       H    -8.70414    9.07618   15.62335
       O    -8.57649    8.18414   15.96686
      H1    -9.38502    8.07773   16.48974
       H    -9.56002   10.92269   13.99516
       O    -9.27074   10.76211   14.91559
      H1    -9.84830   11.38852   15.37760
       H    -7.75679    7.24528   17.45066
       O    -7.13138    7.12207   18.17641
      H1    -7.18846    6.17370   18.32833
       H   -14.94123    5.11110   18.54655
       O   -14.38083    4.39163   18.89615
      H1   -13.53257    4.86578   19.12660
       H   -17.76319   11.32590   17.69885
       O   -18.52695   10.79837   17.41510
      H1   -19.39629   11.03075   17.80912
       H   -12.19254    9.09164   15.09375
       O   -11.36868    8.82672   14.57482
      H1   -10.75334    9.47510   14.93048
       H   -14.25768   14.24918   17.97397
       O   -15.19093   14.35587   18.15043
      H1   -15.66993   14.44668   17.29881
       H   -14.24406    7.85103   18.90183
       O   -15.14032    7.88712   19.29536
      H1   -15.11928    7.15262   19.93815
       H   -15.61845    6.58055   15.54910
       O   -14.78679    6.05568   15.47147
      H1   -15.03078    5.17872   15.73034
       H   -10.51634    5.52821   17.68691
       O   -10.21499    6.30780   17.24127
      H1   -10.37035    6.06209   16.30951
       H   -18.66714    3.00597   18.83521
       O   -18.20968    2.24056   18.54169
      H1   -17.39850    2.29601   19.05179
       H   -10.52581    9.51801   18.19871
       O   -10.06836   10.25941   17.79360
      H1    -9.16062   10.08527   17.96538

