81
frame 1 | Written by MDAnalysis XYZWriter (release 2.4.3)
       H    17.05310   11.86372    3.51814
       O    16.64829   11.50243    2.69033
      H1    17.34928   10.95863    2.29453
       H    14.62235   14.33472    1.82904
       O    14.97464   14.39521    0.93730
      H1    15.82385   13.87629    0.86633
       H    14.25665    9.52009    1.97898
       O    14.73947    8.70411    2.05024
      H1    14.88814    8.45589    1.12444
       H    13.42956   11.10468    8.26544
       O    12.54579   10.81777    8.60760
      H1    12.27748   11.59140    9.16627
       H    13.51533   15.57764    7.30038
       O    13.52034   14.87002    7.97416
      H1    14.50778   14.75443    8.13801
       H    14.03399   16.29894    3.05495
       O    13.76849   15.49196    3.42747
      H1    13.50107   15.72075    4.35564
       H    15.66936   13.64100    9.12618
       O    16.06812   14.48028    8.77631
      H1    16.06395   15.14131    9.51698
       H    17.96106   10.19159    4.62056
       O    18.04171   10.97008    5.18576
      H1    18.98560   11.10610    5.13313
       H    12.54588   17.35862    5.84854
       O    13.46890   17.10622    5.95502
      H1    14.02382   17.62104    5.40768
       H    15.19597   16.02202    0.37963
       O    15.15737   16.92351    0.07194
      H1    14.17923   17.11177   -0.03173
       H     9.98415   14.21249    4.95451
       O    10.43586   13.36339    4.70201
      H1    11.41958   13.61472    4.88091
       H    16.20204   18.54220    4.79754
       O    15.45563   18.21907    4.32213
      H1    15.01950   19.05948    4.02253
       H    13.85771   13.71774    4.76936
       O    13.09897   13.43160    5.25314
      H1    13.40609   13.45508    6.15030
       H     8.81603   15.32090    6.28000
       O     8.96332   15.54174    5.34179
      H1     8.09664   15.62047    4.88399
       H    11.93104   16.11151   -1.03888
       O    12.08738   16.64239   -0.26114
      H1    12.21135   15.97747    0.40110
       H    16.16863   11.03781    7.84220
       O    15.28484   10.81236    7.68849
      H1    15.20930   10.77541    6.69092
       H    15.11623    9.57871    4.73134
       O    15.08771   10.53114    4.84104
      H1    15.58065   10.92837    4.06292
       H    10.98884   11.25717    6.78050
       O    10.12527   11.49222    6.50733
      H1    10.22347   12.15664    5.75230
       H    10.95835   18.07640    6.92898
       O    10.85095   17.72004    6.00665
      H1    10.12691   17.10985    5.99007
       H    17.25196   16.59964    4.06721
       O    17.83496   15.91567    3.62396
      H1    18.44131   15.72747    4.35111
       H    17.12549   15.54031    7.70402
       O    17.68762   16.11201    7.17632
      H1    17.19436   16.77591    6.66847
       H    13.09267   15.16173   10.86080
       O    12.91435   15.87643   10.24594
      H1    13.19848   15.66118    9.35709
       H    16.95079   14.41538    4.40167
       O    16.50204   13.75747    5.00919
      H1    17.23257   13.59968    5.67498
       H    12.26687   15.33148    2.69338
       O    11.36881   15.28896    2.24055
      H1    11.29714   14.33621    2.17658
       H    12.85763   10.82517    3.11227
       O    12.85910   11.06470    2.17498
      H1    11.98239   10.92046    1.78789
       H    13.64538   13.26318    0.56637
       O    12.66655   13.21876    0.57684
      H1    12.48791   12.54359    1.22519
       H     9.47079   13.48481    3.04289
       O     8.92251   13.18226    2.32471
      H1     8.35698   12.55593    2.78838

