81
frame 1 | Written by MDAnalysis XYZWriter (release 2.4.3)
       H   -16.56391  -11.22196   -1.18077
       O   -16.40218  -10.51613   -1.81254
      H1   -16.44487  -10.94657   -2.67538
       H   -16.49266   -6.59174    1.25557
       O   -15.95502   -7.27356    0.76349
      H1   -16.58611   -7.87035    0.32764
       H   -16.06043   -8.70279    3.89264
       O   -15.44265   -8.77257    3.11213
      H1   -15.89487   -8.19844    2.45504
       H   -14.54924   -8.07821    7.58437
       O   -15.43917   -8.22731    7.98138
      H1   -15.62183   -7.54921    8.62500
       H   -18.83256  -11.25448    2.42266
       O   -19.34630  -11.06115    1.61787
      H1   -19.30937  -10.07479    1.39897
       H    -9.51691   -7.90175    3.07864
       O   -10.08085   -8.04974    3.86603
      H1   -10.71122   -8.73393    3.51610
       H   -17.52250   -9.38614    6.00061
       O   -17.25010   -9.87408    6.76623
      H1   -16.67246   -9.25723    7.24471
       H   -18.99211  -13.36539    4.61097
       O   -18.57917  -12.58111    4.20859
      H1   -17.60332  -12.76921    4.16728
       H   -14.46597   -3.66600    3.44325
       O   -14.68345   -3.06251    2.71614
      H1   -14.37561   -3.50548    1.92304
       H   -11.59522  -10.08529    5.30174
       O   -11.87928  -10.08237    4.40405
      H1   -11.33181  -10.70661    3.91288
       H   -17.92080  -11.87675    0.78570
       O   -17.06973  -12.22776    0.41061
      H1   -16.48048  -12.36484    1.15305
       H   -18.96969   -8.99088    4.68907
       O   -18.15094   -8.53862    4.41089
      H1   -18.41818   -7.72388    3.97436
       H   -13.68872   -5.41810    5.02833
       O   -14.21735   -4.64444    5.05622
      H1   -14.01764   -4.12903    5.80468
       H   -17.49935   -9.29663   -1.01106
       O   -18.19589   -8.74316   -0.59323
      H1   -17.99620   -7.92357   -1.05505
       H   -14.49963  -10.11197    2.47340
       O   -13.96690  -10.90912    2.21992
      H1   -13.03234  -10.62403    2.40025
       H   -11.97174   -8.20906    6.97029
       O   -12.81483   -8.21689    6.57138
      H1   -12.78236   -7.61193    5.80077
       H   -14.27739  -10.24086   -1.53087
       O   -13.38264  -10.29510   -1.37329
      H1   -13.29094  -10.93990   -0.62323
       H   -11.59402   -5.48093    1.23948
       O   -10.95465   -4.76810    1.28697
      H1   -10.34492   -5.03207    0.54561
       H   -16.86210   -4.29849    4.47365
       O   -17.02444   -4.09015    3.51996
      H1   -16.24660   -3.68392    3.12683
       H   -14.80581  -11.76985    3.48336
       O   -15.28065  -12.43856    4.01870
      H1   -15.29130  -12.11065    4.93154
       H   -11.94659   -7.14015    3.69474
       O   -12.67137   -6.82314    4.30136
      H1   -13.50982   -7.07275    3.82539
       H   -18.80673   -5.73674    1.43383
       O   -18.36547   -6.07689    2.17991
      H1   -17.93140   -5.26052    2.63113
       H   -15.61057  -10.86248    6.70559
       O   -14.78465  -11.17104    6.37171
      H1   -14.35941  -10.37342    5.98582
       H   -15.92374   -5.11325    5.85346
       O   -16.79817   -4.89278    6.17825
      H1   -16.75119   -4.89594    7.16766
       H   -18.35887   -5.60930    6.57334
       O   -19.27276   -5.89444    6.68631
      H1   -19.62687   -6.11993    5.82952
       H   -11.95090   -7.71605   -2.25073
       O   -12.07766   -7.85175   -1.31388
      H1   -12.43489   -8.74722   -1.34619
       H   -13.84343   -6.92034    0.82621
       O   -12.94790   -6.64156    1.01822
      H1   -12.55539   -7.20614    0.31003

