81
frame 2 | Written by MDAnalysis XYZWriter (release 2.4.3)
       H   -11.03463   17.84134   -0.91247
       O   -11.62818   17.53886   -0.20533
      H1   -11.14476   16.97829    0.38171
       H    -2.97378   17.74822   -3.06572
       O    -3.56530   17.45195   -2.34080
      H1    -3.32592   18.00654   -1.59217
       H    -4.60977   18.94704    5.29662
       O    -5.37612   18.36382    5.17122
      H1    -5.63212   18.57836    4.25587
       H    -7.64265   15.80757    4.59675
       O    -8.58621   15.88058    4.30988
      H1    -8.55860   15.04000    3.79986
       H   -13.44582   16.90263   -0.41374
       O   -14.18623   16.28803   -0.25140
      H1   -14.75782   16.42908   -1.02780
       H    -3.05181   16.35746    1.82200
       O    -2.22351   16.88863    1.84645
      H1    -2.27623   17.30537    2.72156
       H    -8.26325   19.24472    5.89702
       O    -7.58277   19.55785    6.50472
      H1    -6.77655   19.23405    6.13426
       H   -11.94878   19.17367    2.92393
       O   -11.14053   18.85530    2.58320
      H1   -10.59348   18.79520    3.37930
       H    -7.62493   13.52784    1.59223
       O    -6.86776   13.42702    1.01333
      H1    -7.17699   12.71039    0.45760
       H    -9.07682   17.50791    4.45505
       O    -9.36834   18.46174    4.58553
      H1   -10.05420   18.38032    5.26459
       H    -9.69818   18.34992   -5.17408
       O    -9.75991   17.38004   -5.12608
      H1    -9.04554   17.09280   -5.69290
       H    -8.39324   17.05452   -2.21837
       O    -7.66981   16.45168   -2.03731
      H1    -7.95404   15.52597   -2.23937
       H    -4.94422   15.83231   -5.06342
       O    -5.77641   16.31838   -5.18029
      H1    -6.08216   16.55843   -4.24072
       H   -10.01045   11.96646   -0.60644
       O   -10.33422   12.85025   -0.40760
      H1   -10.15527   13.23010   -1.29552
       H    -9.82038   17.81195   -3.29150
       O    -9.73020   18.15275   -2.35616
      H1    -9.63680   19.09746   -2.37855
       H    -5.54126   14.91992    2.16945
       O    -4.62623   15.26625    2.21513
      H1    -4.79338   16.17364    2.61466
       H    -9.40438   16.22383    7.47021
       O    -9.77291   15.62541    6.81796
      H1    -9.31703   15.76836    5.94301
       H    -9.59271   13.06418    3.19327
       O    -9.06651   13.74630    2.68255
      H1    -9.66214   14.20052    2.08106
       H    -1.48925   18.85574   -0.31110
       O    -2.34458   19.19292   -0.62438
      H1    -3.01311   19.40979    0.03534
       H   -11.70549   17.70967    7.01002
       O   -11.32895   18.43965    6.49768
      H1   -10.97109   19.03712    7.18584
       H    -6.45212   17.68929    2.04586
       O    -5.54892   17.87703    2.45130
      H1    -5.06832   18.46292    1.80494
       H    -5.16550   18.06363   -3.07891
       O    -6.09746   18.32730   -3.03562
      H1    -6.45943   17.52999   -2.62450
       H   -12.11994   13.54235   -0.41363
       O   -13.01518   13.81979   -0.67052
      H1   -13.17267   14.73359   -0.40278
       H    -7.53150   17.08290    0.08575
       O    -7.84662   17.40612    0.96640
      H1    -8.18933   18.33556    0.85498
       H    -5.90190   16.70074    5.60964
       O    -6.06173   15.76494    5.73541
      H1    -6.20268   15.63466    6.64513
       H   -10.38358   14.39597   -3.27240
       O    -9.46842   14.30098   -3.03989
      H1    -9.35137   13.42444   -3.35042
       H    -9.70539   15.30176    0.19811
       O    -9.95303   15.69508    1.01491
      H1    -9.30348   16.40704    1.09248

