81
frame 3 | Written by MDAnalysis XYZWriter (release 2.4.3)
       H     6.60250   -5.80947  -13.63926
       O     6.59664   -6.24503  -12.76584
      H1     7.42351   -5.98043  -12.37018
       H     5.47103   -5.20930  -15.29492
       O     6.31556   -4.64046  -15.05051
      H1     5.83951   -3.87454  -14.67634
       H     3.12329   -5.27668  -12.29445
       O     2.73842   -4.97563  -13.19133
      H1     1.76728   -5.07090  -13.26045
       H     7.38938    0.28323  -18.65805
       O     6.56215    0.43881  -19.14924
      H1     5.96202    0.68563  -18.45179
       H     2.44183   -4.92604  -19.35582
       O     2.44884   -5.78128  -18.87813
      H1     2.98269   -6.30499  -19.46753
       H     9.85771   -0.14723  -17.78189
       O     9.45131    0.52083  -17.22156
      H1    10.00661    0.55245  -16.41142
       H     5.29489   -5.43933  -11.74559
       O     4.47950   -5.61680  -11.26159
      H1     4.36739   -4.94007  -10.61384
       H     4.73998   -5.08618  -18.77755
       O     5.56356   -5.40511  -18.41681
      H1     6.22129   -4.70795  -18.35743
       H     1.84881   -0.71372  -16.20007
       O     2.14485   -0.63975  -17.12003
      H1     2.73211    0.12437  -17.20229
       H     9.01261   -0.10532  -13.50798
       O     9.20183   -0.91398  -14.02951
      H1    10.15731   -0.81344  -14.20574
       H     4.81372   -2.16316  -13.42962
       O     5.76709   -2.13674  -13.53680
      H1     5.86567   -1.60387  -14.33333
       H     3.08366   -1.77724  -12.38986
       O     3.06191   -2.20342  -13.25997
      H1     3.00291   -3.16316  -13.16790
       H     0.41119    0.10120  -13.39075
       O    -0.17916    0.91077  -13.35928
      H1    -0.63237    0.88530  -12.50086
       H     3.50833    0.67173  -11.30056
       O     3.62058   -0.25386  -11.60694
      H1     3.97862   -0.06550  -12.48852
       H     6.54597   -0.51218  -16.04227
       O     6.43904   -1.46161  -16.15525
      H1     7.38913   -1.70851  -16.25121
       H     5.53429   -8.55104  -17.00879
       O     5.94430   -8.24021  -17.87314
      H1     5.90546   -7.27521  -17.86642
       H     4.82398    1.39770  -14.13140
       O     4.15312    0.70698  -14.40194
      H1     3.39904    1.24868  -14.57596
       H     1.85753   -1.69474  -14.17777
       O     1.08622   -1.22901  -14.67523
      H1     0.36037   -1.87757  -14.76098
       H     0.07533   -1.12877  -17.58541
       O    -0.86541   -0.80587  -17.75819
      H1    -1.51990   -1.53572  -17.55756
       H     8.90185   -2.45052  -15.26980
       O     8.76318   -3.23128  -15.86193
      H1     8.02281   -3.67748  -15.33844
       H     3.67537   -6.07281  -14.52559
       O     4.12451   -6.36286  -15.33425
      H1     3.54390   -6.06768  -16.05344
       H     4.57588    0.78610  -16.02491
       O     4.89693    1.02576  -16.96774
      H1     5.20676    1.93085  -16.89235
       H     2.60726   -3.57018  -16.48972
       O     1.80323   -4.02829  -16.22178
      H1     1.34005   -4.41501  -16.97510
       H     6.99512   -0.72690  -10.20082
       O     7.20564   -0.88448  -11.11174
      H1     6.47959   -1.24651  -11.53235
       H     3.12228   -2.01389  -17.05789
       O     3.89048   -2.67502  -17.14211
      H1     4.52415   -2.37956  -16.46444
       H    -0.00199   -5.88964  -14.00303
       O     0.26025   -4.97571  -14.04939
      H1     0.69803   -4.86216  -14.90523
       H     8.16817   -3.16539  -17.72818
       O     7.97645   -3.75255  -18.47501
      H1     7.91553   -3.23455  -19.29214

