81
frame 3 | Written by MDAnalysis XYZWriter (release 2.4.3)
       H    -3.71445   14.16251  -11.59994
       O    -4.27939   13.56520  -11.16253
      H1    -4.62853   12.94728  -11.80928
       H    -6.35726   14.77673  -15.32967
       O    -5.80440   14.73239  -16.13549
      H1    -5.66204   15.62302  -16.50914
       H    -2.78800   17.00951  -13.05958
       O    -2.57052   17.68889  -13.66115
      H1    -2.67269   17.40717  -14.63423
       H    -4.21536   18.64030  -13.21632
       O    -5.18265   18.59891  -13.25674
      H1    -5.61501   19.27578  -12.65081
       H     1.82385   15.04901  -15.33094
       O     1.74347   15.98301  -15.71407
      H1     1.24796   15.83538  -16.54816
       H     0.79368   14.66900  -19.32463
       O     0.44640   15.03440  -18.51250
      H1    -0.28930   14.48936  -18.17584
       H    -5.30120   17.47329  -17.95036
       O    -4.52892   16.89916  -17.74733
      H1    -4.37529   16.25895  -18.50988
       H    -7.31022   11.22623  -17.13561
       O    -7.89173   10.70542  -16.62218
      H1    -7.97691    9.90494  -17.18701
       H    -2.05189   18.65650  -16.82660
       O    -2.36070   17.88662  -16.29973
      H1    -2.98417   17.35762  -16.84199
       H    -0.36087   10.38207  -16.23730
       O    -0.71445   11.14278  -15.68227
      H1    -1.17922   11.64719  -16.34561
       H    -7.11232   17.37512  -18.48175
       O    -7.05719   18.16883  -17.94153
      H1    -7.25951   18.94565  -18.50337
       H    -9.20471   18.52870  -12.59201
       O    -8.67059   18.32134  -11.79680
      H1    -8.19375   17.50167  -12.03060
       H    -6.30722   16.55361  -11.32664
       O    -6.79976   16.40388  -12.12906
      H1    -6.32973   17.06972  -12.63136
       H    -8.25998   17.67155  -16.34504
       O    -8.47391   17.09101  -15.58249
      H1    -8.77994   17.76616  -14.97014
       H   -11.93014   16.00110  -18.14607
       O   -11.37511   16.33875  -17.41674
      H1   -10.86056   15.59626  -17.10218
       H    -1.98042   13.22961  -17.99517
       O    -1.31687   13.48113  -17.32369
      H1    -1.93587   13.78439  -16.56423
       H    -8.89816   15.22142  -15.30512
       O    -9.47587   14.53239  -15.70775
      H1    -9.10187   13.72924  -15.25490
       H    -6.95985   12.79594  -18.64691
       O    -6.38053   12.57255  -17.82199
      H1    -6.46132   13.34149  -17.24495
       H   -10.38888   16.53208  -18.75984
       O    -9.97041   16.71128  -19.58569
      H1   -10.24720   17.64351  -19.74034
       H    -4.08612   13.84857  -15.12258
       O    -3.15915   13.86027  -15.35847
      H1    -2.75027   13.55081  -14.53023
       H    -0.83564   18.68811  -13.97626
       O    -0.44348   19.50186  -13.74680
      H1     0.46618   19.16542  -13.53493
       H    -6.80761   13.22552  -13.31988
       O    -7.13316   13.92143  -13.86288
      H1    -7.47316   14.60654  -13.26584
       H     0.37504   17.35894  -18.16254
       O     0.62462   18.29146  -18.16225
      H1     0.59454   18.62334  -19.09375
       H    -2.06636   16.21171  -11.03802
       O    -2.91159   16.06640  -11.45970
      H1    -3.61002   15.99291  -10.74329
       H     0.65033   12.51652  -17.80684
       O     1.51771   12.09589  -18.01863
      H1     1.32830   11.36055  -18.62825
       H    -9.90075   19.26292  -15.80216
       O    -9.97448   19.75706  -16.63848
      H1   -10.28551   19.09777  -17.24078
       H    -5.58192   14.41382  -19.80581
       O    -4.70786   14.05157  -19.58101
      H1    -4.96582   13.60926  -18.74231

