81
frame 3 | Written by MDAnalysis XYZWriter (release 2.4.3)
       H     4.92277   16.32267  -14.92462
       O     5.02885   17.23870  -15.14254
      H1     4.24725   17.32572  -15.70971
       H     5.46777   16.60728  -17.40088
       O     4.85154   16.79222  -18.06059
      H1     4.25018   17.45593  -17.65211
       H     1.42586   11.01484  -12.96121
       O     2.19152   11.10869  -12.35241
      H1     1.86147   11.69596  -11.63277
       H     1.82385   15.04901  -15.33094
       O     1.74347   15.98301  -15.71407
      H1     1.24796   15.83538  -16.54816
       H     4.76390   14.11365  -17.43632
       O     5.04523   13.82073  -16.58697
      H1     4.38872   13.16264  -16.29348
       H     0.79368   14.66900  -19.32463
       O     0.44640   15.03440  -18.51250
      H1    -0.28930   14.48936  -18.17584
       H    -0.06714   13.64406  -12.70229
       O    -0.95303   13.70520  -12.43876
      H1    -0.94841   14.22245  -11.64194
       H    -0.94042    5.98592  -17.72213
       O    -1.32714    6.42195  -16.93711
      H1    -1.85792    7.18525  -17.16999
       H    -0.36087   10.38207  -16.23730
       O    -0.71445   11.14278  -15.68227
      H1    -1.17922   11.64719  -16.34561
       H     5.35606   10.03083  -15.25583
       O     4.82679    9.55700  -15.86947
      H1     5.12553    9.87294  -16.74475
       H     7.92359   13.09206  -15.94745
       O     7.77985   13.98885  -16.20667
      H1     6.79684   14.05650  -16.27884
       H     3.09800   13.32955  -18.63845
       O     3.48755   14.14048  -18.93966
      H1     2.92234   14.83279  -18.53720
       H     3.51883    7.93660  -18.51939
       O     2.74043    7.50352  -18.07424
      H1     2.39001    8.17983  -17.53058
       H     5.80685   13.27142  -18.72295
       O     6.46170   13.00047  -19.39113
      H1     7.33596   13.31439  -19.14226
       H    -1.98042   13.22961  -17.99517
       O    -1.31687   13.48113  -17.32369
      H1    -1.93587   13.78439  -16.56423
       H     0.03278    7.53790  -16.61676
       O     0.53650    8.37683  -16.54410
      H1     1.09340    8.29328  -15.75876
       H     3.06862    8.87055  -14.59365
       O     2.19794    8.70062  -14.31246
      H1     2.09678    8.70053  -13.37506
       H     3.31008   11.33727  -15.86135
       O     3.38470   12.15145  -15.31245
      H1     3.87937   11.81711  -14.52281
       H    -4.08612   13.84857  -15.12258
       O    -3.15915   13.86027  -15.35847
      H1    -2.75027   13.55081  -14.53023
       H     6.38215   11.52712  -18.21532
       O     6.25815   10.57933  -18.11825
      H1     6.76122   10.19323  -18.84062
       H     0.37504   17.35894  -18.16254
       O     0.62462   18.29146  -18.16225
      H1     0.59454   18.62334  -19.09375
       H    -1.15707    8.90277  -19.13060
       O    -2.05644    9.15203  -18.95963
      H1    -2.50662    8.64987  -19.67714
       H     1.68896   12.78862  -14.56458
       O     0.87247   13.23836  -14.37924
      H1     0.25588   12.63978  -14.82947
       H     6.08299   11.31715  -13.96136
       O     5.29899   11.00790  -13.59966
      H1     5.53554   10.65981  -12.74113
       H    -1.53663   10.40384  -13.94722
       O    -1.60269   10.14849  -13.00981
      H1    -1.51752   10.96754  -12.47844
       H     0.65033   12.51652  -17.80684
       O     1.51771   12.09589  -18.01863
      H1     1.32830   11.36055  -18.62825
       H    -3.21318    8.81547  -17.49938
       O    -3.67913    8.20221  -16.86129
      H1    -4.09670    8.76783  -16.20777

