81
frame 3 | Written by MDAnalysis XYZWriter (release 2.4.3)
       H   -10.81781  -15.92720   -8.06777
       O   -10.39077  -16.36362   -8.81147
      H1    -9.98129  -17.15248   -8.51041
       H   -10.40389  -18.73211   -6.44997
       O   -10.25658  -18.67719   -5.46670
      H1   -11.19645  -18.59060   -5.18495
       H   -14.95385  -19.64047    0.79144
       O   -14.95764  -19.44555   -0.15761
      H1   -14.27643  -18.77037   -0.28663
       H   -10.59166  -15.93970   -3.40681
       O   -10.13333  -15.29189   -4.02853
      H1    -9.50935  -15.91651   -4.46403
       H    -8.75020  -18.78683    1.64519
       O    -9.16072  -19.66500    1.31347
      H1   -10.00731  -19.72680    1.76926
       H   -13.56627  -18.35077   -4.60337
       O   -12.61453  -18.61295   -4.45617
      H1   -12.82058  -19.49146   -4.18812
       H   -14.02804  -17.90815   -8.34756
       O   -14.44322  -17.42713   -7.59456
      H1   -15.34398  -17.20561   -7.91687
       H    -5.71580  -19.77106   -2.04634
       O    -5.86939  -19.19797   -1.23848
      H1    -6.71369  -18.74914   -1.36194
       H    -8.91519  -17.60144   -5.71370
       O    -8.27947  -16.86507   -5.48474
      H1    -7.78340  -16.66597   -6.33520
       H   -10.64641  -13.18462   -0.45773
       O   -10.07996  -12.44128   -0.74473
      H1   -10.64108  -11.64259   -0.68523
       H   -15.66642  -17.46154    0.37276
       O   -15.66432  -16.63774    0.87759
      H1   -15.58237  -16.96091    1.80210
       H    -9.15777  -19.34547   -0.62890
       O    -9.47698  -19.17884   -1.55342
      H1   -10.25320  -18.52621   -1.60054
       H   -10.11812  -19.17690   -9.04563
       O    -9.55290  -18.89398   -8.27514
      H1    -8.65993  -19.23527   -8.46971
       H   -11.65770  -16.61252    2.18716
       O   -10.89750  -16.52508    1.52178
      H1   -11.18797  -15.81105    0.90196
       H    -9.44322  -13.59856   -3.55621
       O    -9.46074  -12.67191   -3.46614
      H1    -9.71619  -12.52179   -2.56857
       H    -6.10453  -18.16283   -5.87520
       O    -5.64684  -18.47312   -5.14041
      H1    -6.31743  -18.58666   -4.44246
       H    -7.00528  -16.27199   -1.01624
       O    -6.47502  -15.66485   -0.45651
      H1    -6.95923  -14.82299   -0.33533
       H   -12.17653  -12.01495   -4.01949
       O   -12.32657  -12.92184   -3.85652
      H1   -11.40261  -13.26973   -3.82533
       H   -12.42548  -14.91544   -1.15589
       O   -12.04922  -14.58398   -0.35310
      H1   -12.79731  -14.05117    0.10265
       H   -12.61990  -15.33244   -6.29478
       O   -11.67031  -15.34377   -6.55224
      H1   -11.08325  -15.36347   -5.82205
       H   -15.38765  -19.14395   -5.17413
       O   -15.29970  -18.24305   -4.75596
      H1   -15.39887  -17.52354   -5.45873
       H    -8.48051  -17.83846   -2.55319
       O    -7.67905  -17.29902   -2.65141
      H1    -7.85897  -16.82076   -3.50794
       H   -11.82076  -17.12506   -1.64303
       O   -11.22408  -17.19738   -2.39381
      H1   -11.72289  -17.76425   -3.02132
       H   -15.72295  -15.74568   -3.22641
       O   -16.38189  -15.82722   -3.91977
      H1   -16.55553  -16.78032   -3.95765
       H   -13.46623  -14.28351   -2.75506
       O   -13.92624  -15.12929   -2.56441
      H1   -14.02642  -15.50021   -3.44576
       H   -12.44846  -17.56872    0.29840
       O   -13.07877  -17.41744   -0.42075
      H1   -13.59479  -16.64285   -0.18252
       H   -14.55927  -13.38825   -6.51206
       O   -14.03335  -14.03032   -5.88806
      H1   -13.75064  -13.47521   -5.15322

