81
frame 0 | Written by MDAnalysis XYZWriter (release 2.4.3)
       H     7.79161    0.21368   -0.46204
       O     7.58161   -0.56905    0.06593
      H1     8.41867   -0.81354    0.52556
       H     4.74213   -2.93559   -4.07937
       O     4.09230   -3.64013   -3.76973
      H1     4.71213   -4.30128   -3.39687
       H    10.91585   -1.20110   -0.60262
       O    11.49413   -1.26772   -1.41753
      H1    11.98134   -2.14172   -1.35586
       H     5.67463   -3.22529    0.62986
       O     5.59956   -3.90345   -0.01631
      H1     6.27204   -3.72662   -0.66739
       H    13.59911   -4.74653   -4.27605
       O    14.02361   -4.07891   -3.70388
      H1    14.89777   -4.45728   -3.46419
       H    13.08559   -4.32338   -1.75189
       O    12.25893   -4.02130   -1.30400
      H1    11.63610   -3.99749   -2.05113
       H    11.48957   -3.06026   -6.27638
       O    11.78347   -2.56875   -5.47490
      H1    11.31653   -2.92311   -4.68508
       H     8.80625   -4.29829   -0.36438
       O     8.28018   -3.88488   -1.00984
      H1     8.80148   -3.15378   -1.41735
       H     7.54225   -4.92157   -7.03119
       O     7.56254   -4.01351   -7.21341
      H1     6.67832   -3.73370   -7.00008
       H    10.01885    0.41594    0.89765
       O    10.07012   -0.53591    0.98242
      H1    10.96122   -0.82864    1.29836
       H     9.49186   -7.75127   -1.08750
       O     9.49053   -7.85295   -2.01688
      H1    10.21383   -8.48640   -2.17389
       H     9.37042    1.74444   -4.37831
       O     9.74424    0.80860   -4.13545
      H1    10.65346    1.09574   -3.99796
       H    10.40336   -4.11638   -8.77941
       O    10.30320   -3.64293   -7.89898
      H1     9.37349   -3.73183   -7.69801
       H    13.60630    1.27691   -1.40630
       O    12.61669    1.37148   -1.31474
      H1    12.28822    0.52822   -1.16762
       H     8.47118   -6.65930   -6.58142
       O     7.49132   -6.68194   -6.72388
      H1     7.33398   -7.24770   -7.47442
       H     6.35064   -6.08432   -2.44269
       O     6.36549   -5.23629   -2.87825
      H1     7.21585   -4.99333   -2.56467
       H     7.56157   -1.21366   -2.62912
       O     8.19271   -1.49656   -3.31557
      H1     8.70780   -0.65598   -3.53091
       H    10.46700   -0.38760   -7.17212
       O     9.86741   -0.76935   -7.82076
      H1     9.78876   -1.70900   -7.58681
       H    11.87098    0.96101   -5.83274
       O    11.72365    1.12014   -6.78802
      H1    12.49673    1.44406   -7.19260
       H     9.67348   -4.43201   -3.50170
       O    10.12974   -3.56775   -3.38087
      H1     9.48314   -2.82003   -3.33611
       H    13.34980    0.19214   -4.07555
       O    13.98076   -0.49446   -4.43939
      H1    13.38009   -1.19089   -4.65782
       H     4.52151   -3.53713   -6.84565
       O     5.12846   -2.90137   -7.26253
      H1     5.26759   -2.30374   -6.50297
       H    10.31904   -7.77991   -6.23674
       O    10.25616   -6.83932   -6.32086
      H1    10.18809   -6.47575   -5.47015
       H     5.24589   -0.85225   -4.46301
       O     5.61998   -1.65903   -4.91213
      H1     6.49413   -1.75650   -4.59728
       H    13.85316   -5.51686   -6.65042
       O    13.24999   -5.70028   -5.94899
      H1    12.38208   -5.85590   -6.34440
       H     8.05559   -5.80136   -3.91678
       O     9.02648   -5.87951   -3.91986
      H1     9.20691   -6.67465   -3.34825
       H     9.47082    1.27224   -1.90757
       O     9.13545    1.43605   -0.99429
      H1     9.79405    1.86039   -0.42881

