81
frame 2 | Written by MDAnalysis XYZWriter (release 2.4.3)
       H     4.17850   12.41199   18.61441
       O     4.26935   11.48286   18.38934
      H1     5.18188   11.17667   18.57053
       H     6.54494   12.44051   15.34472
       O     7.19328   12.70750   16.00317
      H1     7.72704   11.93665   16.17037
       H     5.83413    4.85434   17.75995
       O     5.95398    5.71536   18.23067
      H1     5.34444    6.24055   17.67995
       H     4.44435   13.25363   13.49292
       O     5.27921   12.69921   13.50999
      H1     5.61298   12.81411   12.58372
       H     9.62951   11.35399   16.82453
       O     8.85429   10.85946   17.10475
      H1     8.88661   10.08016   16.50550
       H     3.30856    6.55324   16.55851
       O     4.14124    7.11558   16.58368
      H1     3.89255    8.03671   16.35798
       H     2.29442   14.41004   18.76828
       O     1.41284   14.50408   18.31146
      H1     1.41151   15.32181   17.77892
       H     9.91146    7.78883   15.03133
       O     9.60143    8.67014   15.03008
      H1     8.70691    8.58149   14.63825
       H     5.05554    6.20078   15.43375
       O     5.63272    5.76528   14.77812
      H1     5.19692    5.95693   13.96160
       H     9.67563   14.36311   14.79138
       O     9.02050   13.82226   14.32311
      H1     8.57591   13.47480   15.06562
       H     3.53832   10.35346   15.23123
       O     3.28365   10.05898   16.09364
      H1     4.03988   10.47453   16.50025
       H     0.09173   13.48246   17.94507
       O    -0.52614   12.75801   17.72215
      H1    -1.10760   12.56698   18.51180
       H    -0.75674   13.60771   16.13669
       O    -0.55951   14.15030   15.36471
      H1    -0.90810   14.97916   15.60848
       H     4.41367   15.11396   15.67258
       O     4.68566   15.77284   16.36538
      H1     5.20118   15.26307   17.02140
       H     6.59821   13.79544   17.35710
       O     6.44899   14.48948   17.99398
      H1     6.52995   14.07585   18.85143
       H    -0.68397    7.35128   18.38661
       O    -0.19092    7.53074   17.59290
      H1    -0.23367    8.46374   17.37075
       H     0.97854    9.95342   12.99554
       O     1.73026   10.59269   13.01950
      H1     1.32026   11.45319   12.97622
       H     1.12956    6.27568   16.78047
       O     1.85277    5.80262   16.36247
      H1     1.82560    4.94468   16.81220
       H    -1.87761   10.34238   15.19275
       O    -1.43210    9.52741   15.46935
      H1    -0.56351    9.86145   15.75900
       H     8.69060   16.88157   17.49383
       O     8.79145   16.04276   17.95869
      H1     8.04904   15.54043   17.60959
       H     7.04309   16.89889   14.19169
       O     6.84342   17.27816   15.07591
      H1     6.02020   16.76895   15.41679
       H     1.68516   10.21643   16.77487
       O     0.83307   10.35285   17.13702
      H1     0.83760   11.19985   17.57093
       H     7.42079    6.95559   18.60658
       O     7.95347    7.58427   19.12929
      H1     8.71966    7.67563   18.56758
       H     6.96684    9.29209   18.93598
       O     6.82648   10.20682   18.66498
      H1     7.61049   10.39139   18.06709
       H     4.31506    9.81670   12.42101
       O     4.80600   10.01624   13.24292
      H1     4.85112   10.91803   13.36830
       H     2.45719   14.43890   14.49449
       O     3.18329   13.96555   14.92035
      H1     2.82687   13.36290   15.56827
       H     6.55768    7.81942   15.15631
       O     6.97560    8.40233   14.49011
      H1     6.22527    8.98630   14.23275

