81
frame 2 | Written by MDAnalysis XYZWriter (release 2.4.3)
       H   -11.87858   11.08190  -14.29819
       O   -12.83951   10.78656  -14.44921
      H1   -13.27928   11.44879  -13.90583
       H   -11.40916   12.60283  -11.07628
       O   -11.66629   11.73285  -10.78334
      H1   -12.64482   11.68851  -10.77554
       H   -13.97383   13.27563  -12.87087
       O   -13.96050   12.39025  -12.57969
      H1   -14.84729   11.99117  -12.79273
       H   -15.45374   15.09249  -13.03842
       O   -16.13189   15.38249  -12.36177
      H1   -16.38411   14.53617  -11.91198
       H   -10.90610   16.48826   -9.12797
       O   -11.11206   16.64767  -10.10595
      H1   -10.21719   16.89167  -10.41016
       H   -10.98054    9.62204  -12.99979
       O   -11.21089    9.30364  -12.14551
      H1   -11.40128   10.12000  -11.61098
       H   -10.88527   15.44715  -13.77992
       O   -11.02506   14.50751  -13.98728
      H1   -10.50227   14.43743  -14.81485
       H    -7.29362   13.74448  -11.37985
       O    -7.99069   13.80473  -10.65162
      H1    -8.91628   14.03419  -10.97682
       H    -9.85575   17.47035  -13.09836
       O    -9.51973   16.64836  -12.75076
      H1    -8.56435   16.58994  -12.89018
       H   -12.89905   14.45190  -14.47653
       O   -13.82778   14.77550  -14.29371
      H1   -14.23429   14.79532  -15.16409
       H   -10.64148   11.17659  -16.58253
       O   -11.24199   10.52837  -17.03837
      H1   -10.88188    9.60738  -17.02911
       H    -6.12916   16.57555  -12.70609
       O    -6.98499   16.34711  -13.17327
      H1    -7.05901   16.65093  -14.10000
       H    -7.86201   17.45891  -16.36493
       O    -8.26114   16.92450  -15.69230
      H1    -8.91007   17.54562  -15.29860
       H   -13.36216   15.04747  -10.05846
       O   -14.18968   15.05732   -9.59445
      H1   -14.81264   15.55620  -10.17965
       H   -12.02237   16.39009  -17.77676
       O   -11.24984   16.52439  -17.16602
      H1   -10.91974   15.63993  -16.98375
       H    -8.33323   16.09753   -8.71976
       O    -8.28196   16.44646   -9.62418
      H1    -8.27889   15.67195  -10.15992
       H    -9.10808   15.29907  -15.83159
       O    -9.42178   14.41134  -16.05433
      H1    -8.84583   13.82302  -15.46058
       H    -9.57167   10.47506   -7.28767
       O    -9.46868   11.45657   -7.04054
      H1   -10.03174   11.92983   -7.66374
       H    -6.99213   12.50863  -13.85525
       O    -7.48929   13.33311  -14.01725
      H1    -7.06661   14.04839  -13.58068
       H   -11.36006   13.27429   -8.80128
       O   -11.71890   13.24580   -7.92208
      H1   -11.57775   14.10000   -7.53526
       H   -12.44383   16.73648  -14.86911
       O   -12.46150   17.59199  -14.46294
      H1   -13.39644   17.77755  -14.30451
       H    -7.03119   13.20406   -8.59325
       O    -6.97826   13.07874   -7.63228
      H1    -7.58492   12.27206   -7.49007
       H   -11.03021   18.53095  -14.74441
       O   -10.13369   18.78708  -14.98991
      H1    -9.89555   19.57088  -14.44406
       H   -11.35358   19.52604  -11.24097
       O   -11.76156   19.46661  -10.34669
      H1   -11.85889   18.51462  -10.17432
       H   -10.71747   14.13864  -12.21347
       O   -10.57507   14.22986  -11.25551
      H1   -10.84636   15.13299  -11.02600
       H    -9.37101   11.09942  -14.67970
       O   -10.12998   11.30960  -14.10911
      H1    -9.75291   11.38109  -13.22243
       H    -8.27844   12.03685  -11.13476
       O    -7.99039   11.16685  -11.43527
      H1    -8.19146   10.58691  -10.65978

