81
frame 2 | Written by MDAnalysis XYZWriter (release 2.4.3)
       H     9.27838  -11.88856   10.90547
       O     9.85508  -12.63860   10.64183
      H1     9.28329  -13.39927   10.57055
       H    12.46212   -7.14356   11.16729
       O    11.47764   -7.11823   11.10225
      H1    11.25743   -6.18497   10.95323
       H    10.92100  -16.75466   11.67842
       O    11.27832  -17.07236   10.78886
      H1    10.54971  -17.51241   10.28132
       H     6.04182  -10.58610    8.44659
       O     5.72968  -10.69971    9.32721
      H1     6.48270  -10.44123    9.84626
       H     9.43274  -14.48361   14.05539
       O    10.06666  -14.89485   14.65358
      H1     9.55097  -15.41309   15.28983
       H     8.63426   -9.47018    6.93237
       O     8.09517   -9.40304    6.07495
      H1     8.60947  -10.04931    5.47574
       H     8.02038  -10.73865   12.40353
       O     8.06803  -10.49716   11.46162
      H1     8.42846   -9.61684   11.61955
       H     9.47671  -14.08818    5.95495
       O    10.30646  -14.13020    6.36940
      H1    10.97115  -14.38967    5.68871
       H    12.27413  -12.97486   15.38791
       O    11.55184  -12.98800   16.05551
      H1    10.82499  -13.25803   15.52341
       H    13.73121  -11.39512   14.92787
       O    13.28052  -10.55919   14.73344
      H1    12.64735  -10.85998   14.07596
       H     5.29987  -13.51860   11.68208
       O     5.75331  -14.33794   11.92512
      H1     6.42199  -14.45923   11.21527
       H    13.73690  -13.33617    9.85377
       O    13.63694  -12.48107    9.46798
      H1    12.76943  -12.43586    9.05529
       H     4.41068  -11.90712    8.35816
       O     3.76592  -12.46784    7.90304
      H1     4.39085  -13.14466    7.40937
       H     7.20728   -5.81461   12.88063
       O     7.62595   -5.90894   12.04981
      H1     7.99119   -6.77629   12.09192
       H    10.29872  -12.22875   12.66500
       O    10.93008  -11.66969   13.06463
      H1    11.65725  -11.61155   12.35028
       H     9.21354   -8.69848   13.38066
       O     9.00015   -8.16244   12.59480
      H1     9.87257   -7.91674   12.32638
       H     7.70435  -12.77096   13.62475
       O     8.17820  -13.51297   13.25809
      H1     7.54043  -14.09992   12.76335
       H    13.72270  -10.78483   12.34856
       O    13.39828  -11.60518   11.99987
      H1    13.69604  -11.70658   11.05777
       H    12.27197  -16.11609    8.94574
       O    12.60601  -16.63684    8.17664
      H1    12.88536  -17.46708    8.49546
       H     4.67093  -11.62065   10.58821
       O     4.22060  -12.17365   11.23513
      H1     3.64781  -12.75397   10.67747
       H     5.63654  -13.01632   13.97961
       O     5.30634  -13.38312   14.79861
      H1     4.40708  -13.10253   14.92205
       H     9.90266   -6.65456    8.47981
       O    10.76111   -7.12591    8.41847
      H1    11.00376   -7.22115    9.37544
       H     7.77720  -10.71304   14.99738
       O     7.29896  -10.93332   14.18779
      H1     6.40434  -10.51965   14.29532
       H     6.89608  -14.38260    9.35013
       O     7.57596  -14.58320   10.09803
      H1     7.53929  -15.52888   10.17297
       H     6.51030  -14.02770    7.40191
       O     5.90099  -14.12903    8.17210
      H1     5.57928  -15.04691    8.20334
       H    10.49081  -12.42851    9.07824
       O    11.12067  -12.32636    8.34643
      H1    10.89503  -12.96634    7.64903
       H    10.25259   -8.98627    8.30419
       O     9.69788   -9.80741    8.23712
      H1    10.34098  -10.54150    8.04461

