81
frame 0 | Written by MDAnalysis XYZWriter (release 2.4.3)
       H     4.47782   -7.53092    3.17780
       O     5.22311   -7.58542    2.53777
      H1     4.81279   -7.39991    1.64404
       H     5.44408  -10.59265    8.17829
       O     5.14899  -11.17030    8.86493
      H1     5.75732  -11.06009    9.56889
       H    -0.80388   -6.95582    5.57318
       O    -0.45933   -7.88447    5.63867
      H1    -1.07527   -8.27264    6.30322
       H     1.46316   -6.42828    3.11763
       O     1.27667   -7.39852    3.02718
      H1     0.98910   -7.78906    3.83765
       H     4.74595   -4.93382    8.84612
       O     5.41730   -5.08202    9.53148
      H1     4.94731   -5.25454   10.34736
       H     3.68225   -4.18257    7.43354
       O     3.75589   -5.12398    7.30171
      H1     2.83334   -5.44982    7.13278
       H    -1.05036   -5.61625    3.73558
       O    -0.69195   -5.42704    4.67281
      H1    -1.49765   -5.16067    5.13364
       H     4.19072   -4.45321    5.86669
       O     4.29333   -4.06679    4.95903
      H1     3.58704   -4.47067    4.39056
       H     1.89618   -4.57379    2.41628
       O     1.90146   -4.91027    3.28302
      H1     1.04768   -4.61842    3.66723
       H    -1.74497   -9.77862   10.15797
       O    -1.23008   -8.94157   10.37032
      H1    -0.33136   -9.24838   10.16116
       H     1.38212   -2.58859    7.89156
       O     0.60729   -2.99873    8.24979
      H1    -0.03048   -2.95819    7.54345
       H     6.67664   -5.62875    8.35848
       O     7.53070   -5.74019    7.92105
      H1     7.40645   -6.32335    7.17316
       H     4.96503   -9.31504    5.79412
       O     5.54454  -10.04593    6.07484
      H1     6.40208   -9.90976    5.59104
       H    -2.47009   -6.02018    9.57934
       O    -1.99946   -5.35612   10.14784
      H1    -2.67024   -4.70663   10.35062
       H     3.03856   -7.27086   10.50038
       O     2.59925   -7.32005    9.62369
      H1     1.98617   -6.53210    9.47638
       H     3.36043   -7.96898    5.67528
       O     3.69782   -8.54357    4.93584
      H1     2.95490   -9.11586    4.67113
       H     4.24597   -5.04382   12.10664
       O     4.47311   -5.94204   11.82304
      H1     5.35318   -6.13401   12.19798
       H     1.75501  -10.12714   10.04382
       O     1.19012   -9.56133    9.49334
      H1     1.51333   -8.63879    9.62341
       H     3.29275   -7.02254   12.79735
       O     2.81953   -7.33179   13.59204
      H1     3.20418   -8.21599   13.69665
       H     3.74065  -10.58660   10.53350
       O     3.03933  -10.77854   11.17428
      H1     2.62465  -11.62630   10.88185
       H     3.57066   -2.08002    6.95906
       O     3.85542   -2.54059    7.72047
      H1     3.80752   -2.02555    8.53055
       H    -0.53735  -11.03014    5.01025
       O    -0.33497  -10.32489    4.37320
      H1    -0.52294   -9.45886    4.69528
       H     2.28752  -11.74528    7.53985
       O     1.36708  -11.61227    7.71685
      H1     1.26196  -10.68208    7.95593
       H     0.67946   -4.45229   11.57318
       O     0.65266   -4.15393   12.48790
      H1     0.61562   -4.93870   13.09777
       H     1.39104  -10.64245    4.00661
       O     2.30774  -10.65506    3.83178
      H1     2.86450  -11.24706    4.34743
       H     0.20356   -5.63725   10.23873
       O     0.92867   -5.09552    9.98492
      H1     0.68729   -4.53524    9.28605
       H     1.32535   -7.33792    6.89080
       O     2.24832   -7.45961    6.96968
      H1     2.48307   -7.36759    7.93461

