81
frame 3 | Written by MDAnalysis XYZWriter (release 2.4.3)
       H    -0.66653   14.95923   -2.29652
       O    -1.62094   15.04898   -2.23685
      H1    -1.85982   15.98928   -2.45914
       H     1.75969   10.24008   -1.31326
       O     1.77450    9.39903   -1.73551
      H1     2.50575    8.96709   -1.25795
       H    -1.46220   12.61352    3.51127
       O    -1.72849   13.48536    3.12358
      H1    -2.22154   13.28607    2.31648
       H     0.62686    9.25010   -3.88713
       O     1.17260    8.72277   -4.49935
      H1     0.93246    9.02820   -5.37023
       H    -3.67582    8.81142   -1.03518
       O    -4.24195    8.51382   -0.31990
      H1    -5.00151    8.11314   -0.80850
       H    -2.17018   15.64083    1.76549
       O    -1.56460   16.28400    2.10519
      H1    -2.15254   17.05252    2.21971
       H     1.12212   12.80451   -0.49233
       O     1.68017   12.02894   -0.59678
      H1     2.39563   12.34464   -1.12284
       H    -4.43501    9.75206    1.03747
       O    -4.07707   10.23683    1.75653
      H1    -4.50911   11.06244    1.68752
       H    -1.09097   12.19121   -5.13400
       O    -0.86218   12.49124   -6.03972
      H1    -1.73763   12.49996   -6.49648
       H    -2.16768   10.48471   -1.50344
       O    -2.42420    9.81264   -2.25247
      H1    -3.28272   10.00311   -2.64806
       H    -5.55689    8.54436    3.95881
       O    -5.98535    8.84097    3.07915
      H1    -5.46262    9.61393    2.90017
       H    -0.12633   14.15097    2.60133
       O     0.71777   14.34881    2.14654
      H1     0.81873   15.24046    2.37291
       H    -0.22076   14.15930    0.60036
       O    -0.66297   13.72830   -0.15548
      H1    -1.12036   14.39775   -0.63899
       H    -4.29125   14.22745    1.25024
       O    -3.80144   15.01309    1.00206
      H1    -4.41556   15.72179    1.02008
       H    -5.06513   12.73707    3.01541
       O    -5.06503   12.76410    2.05460
      H1    -5.94289   12.43622    1.74083
       H    -0.55767   17.10086    0.56469
       O    -0.26699   17.53587   -0.23896
      H1    -0.31878   17.07371   -1.05042
       H    -1.25559    8.48777    3.10101
       O    -1.65197    9.37478    2.99868
      H1    -2.56313    9.23900    2.72522
       H    -1.42739   11.65919    5.20662
       O    -0.87147   11.27973    4.56427
      H1    -1.22986   10.49649    4.11074
       H    -2.54662   11.21824    0.65905
       O    -1.84308   11.27582   -0.00297
      H1    -1.40038   12.12606    0.08733
       H    -0.37856    8.92819    1.33375
       O     0.05496    8.17333    0.94077
      H1    -0.40602    8.12642    0.09835
       H     2.27378   11.15033    2.46572
       O     2.74112   10.95459    1.56677
      H1     2.26741   11.53085    0.90308
       H    -6.04035   12.91378   -3.15598
       O    -6.55956   12.97148   -2.32405
      H1    -6.06557   13.56690   -1.77731
       H     1.69243   15.69447   -2.36806
       O     1.08470   14.95011   -2.49183
      H1     0.83399   15.00632   -3.43406
       H     0.68443   11.91885    4.07300
       O     1.58681   12.20312    3.81962
      H1     1.40389   12.95254    3.17973
       H    -0.00628   12.06429   -2.32491
       O    -0.39034   11.78637   -3.15639
      H1    -1.04276   11.11966   -2.79554
       H     0.28781    8.13945   -1.91096
       O    -0.52053    7.73496   -2.33763
      H1    -1.09503    8.51597   -2.43735
       H    -3.78926   15.11368    5.77825
       O    -2.96615   15.52962    5.34414
      H1    -2.80443   14.76857    4.78953

