81
frame 0 | Written by MDAnalysis XYZWriter (release 2.4.3)
       H    -7.64857   -9.06462    9.17356
       O    -8.63460   -8.96743    9.26155
      H1    -8.89016   -9.86621    9.36881
       H   -10.34392   -2.70631   16.28251
       O   -10.18038   -2.03814   16.86673
      H1    -9.24361   -1.78250   16.74732
       H   -11.31615   -8.34731   14.31077
       O   -10.65257   -8.92515   14.72957
      H1   -10.68875   -9.65100   14.12119
       H    -6.80873   -6.78044   11.35909
       O    -6.35876   -6.06508   10.92118
      H1    -6.01321   -6.51679   10.13806
       H   -12.50596   -6.31326   10.44987
       O   -11.91164   -6.89745   10.93317
      H1   -11.41030   -7.40073   10.34238
       H   -10.54536   -6.38838   17.31009
       O    -9.70926   -6.40570   16.81531
      H1    -9.08630   -5.91657   17.33266
       H    -6.86508   -3.83986   12.98287
       O    -5.99887   -4.30424   13.02502
      H1    -5.97812   -4.92519   12.23978
       H   -13.14196   -4.17477    9.59917
       O   -13.28805   -5.15293    9.33663
      H1   -12.65653   -5.17323    8.59269
       H    -8.91436   -3.84531   12.36369
       O    -8.24909   -3.18609   12.61075
      H1    -7.99614   -2.79305   11.77991
       H    -8.60179   -7.60640   16.04845
       O    -7.75633   -8.13815   16.10641
      H1    -7.93389   -8.83528   15.49365
       H   -12.23267   -7.00898   12.60407
       O   -12.28347   -7.20762   13.57042
      H1   -12.78799   -6.42237   13.87071
       H    -7.67722  -10.14324   14.00589
       O    -8.14595  -10.28576   13.18738
      H1    -8.10377   -9.36988   12.82260
       H   -10.77244   -1.29577    8.99137
       O   -11.28425   -0.42605    8.82455
      H1   -10.92905   -0.15310    7.98230
       H   -12.56871   -2.20364   10.87379
       O   -13.10829   -2.42794   10.13223
      H1   -14.00088   -2.65975   10.47194
       H    -7.60088   -1.54748   10.08140
       O    -7.52397   -2.53137   10.24718
      H1    -6.62838   -2.80552   10.46036
       H    -8.22261   -8.26306   10.77581
       O    -8.21730   -7.84924   11.64579
      H1    -8.65001   -6.97597   11.56551
       H   -12.64138   -2.93263   13.97388
       O   -12.43412   -1.95879   13.88469
      H1   -11.77599   -1.88226   13.19966
       H    -9.75634   -0.95996   15.25698
       O    -9.44559   -0.47638   14.42237
      H1    -9.61472    0.45159   14.42391
       H   -10.35060   -5.48329   13.43231
       O   -10.13897   -5.54149   12.48015
      H1   -10.83041   -6.03305   12.08247
       H    -6.74204   -5.41114   14.46762
       O    -6.70364   -5.60243   15.35927
      H1    -6.84753   -6.54507   15.42141
       H   -10.32299   -5.27928   15.68051
       O   -10.36872   -4.52819   15.01321
      H1   -11.35435   -4.46663   14.96209
       H    -9.83901   -2.26098   12.08427
       O   -10.59374   -1.82896   11.76883
      H1   -10.30457   -0.93317   11.73928
       H   -10.19734   -8.40087    8.30177
       O   -11.12658   -8.28695    8.37580
      H1   -11.24317   -7.49636    7.84701
       H   -11.00694   -5.92681    6.45847
       O   -11.43359   -5.47225    7.22352
      H1   -10.63758   -5.13321    7.67225
       H   -13.24980   -4.90642   15.51944
       O   -13.09134   -4.45466   14.66194
      H1   -14.00168   -4.19907   14.45734
       H   -10.44948   -3.18900    9.93279
       O    -9.97737   -3.46427    9.16521
      H1    -9.10310   -3.15325    9.30985
       H   -14.47601   -9.43905   13.16312
       O   -14.38510   -8.80807   13.88474
      H1   -13.59217   -8.24941   13.72355

