81
frame 3 | Written by MDAnalysis XYZWriter (release 2.4.3)
       H   -12.50889  -17.63295  -16.05942
       O   -12.12436  -17.59310  -16.96254
      H1   -11.40173  -18.24164  -16.90155
       H   -11.56766  -12.74079  -16.97986
       O   -12.17653  -13.13070  -16.26024
      H1   -11.48015  -13.71148  -15.86824
       H   -10.02486  -15.36583  -15.82424
       O   -10.21097  -14.61473  -15.30929
      H1    -9.50343  -13.95461  -15.26649
       H    -9.67491  -11.72432  -18.13977
       O   -10.61901  -11.60808  -18.41532
      H1   -10.73069  -10.85335  -19.03451
       H    -6.04770  -19.64301  -16.70692
       O    -5.85578  -18.74599  -16.47231
      H1    -5.04296  -18.69655  -15.98522
       H    -8.05012  -17.19277  -15.30696
       O    -7.90628  -17.79219  -14.58205
      H1    -7.11054  -18.21918  -14.92391
       H    -5.04408  -11.84405  -16.02373
       O    -4.69917  -12.72075  -15.63925
      H1    -4.26222  -13.27605  -16.34086
       H   -11.47142  -14.99217  -11.62580
       O   -11.19474  -14.61849  -10.75191
      H1   -10.78266  -15.33862  -10.25077
       H   -11.69516  -14.51061  -19.81578
       O   -10.78304  -14.10521  -19.83057
      H1   -10.65331  -13.31819  -19.26892
       H    -4.37491  -18.61931  -14.19023
       O    -4.04566  -17.86660  -14.61910
      H1    -3.33622  -17.47466  -14.07546
       H    -7.06398  -17.25897  -12.03425
       O    -7.03383  -16.29077  -11.99483
      H1    -6.70759  -16.03253  -12.82724
       H    -5.34850  -14.90262  -11.81294
       O    -4.99199  -14.05329  -12.07975
      H1    -5.77568  -13.48403  -12.08401
       H   -12.66577  -16.24421  -13.24980
       O   -11.74670  -15.85329  -13.15921
      H1   -11.36935  -15.40856  -13.89942
       H    -5.09896  -16.43620  -14.73520
       O    -5.63903  -15.62597  -14.93227
      H1    -5.04772  -14.84741  -14.72966
       H    -8.10020  -12.37903  -14.55757
       O    -8.93726  -12.20516  -15.04283
      H1    -8.66992  -12.19589  -15.99811
       H   -12.80227  -16.32370  -20.32590
       O   -13.00306  -15.80541  -19.52300
      H1   -12.60308  -16.19526  -18.77443
       H    -5.98080  -19.26563  -10.84560
       O    -6.66174  -19.13488  -11.54821
      H1    -7.45457  -19.71470  -11.50896
       H    -5.70921  -11.81699  -13.85056
       O    -6.49877  -11.91748  -13.28905
      H1    -6.70570  -11.10171  -12.84613
       H    -2.54915  -13.82465  -17.20726
       O    -3.32161  -14.33987  -17.41337
      H1    -3.13816  -15.26319  -17.25932
       H    -1.85761  -16.97467  -17.23163
       O    -2.80596  -17.00760  -17.06565
      H1    -2.91802  -17.18829  -16.12700
       H    -9.47083  -16.61979  -18.67547
       O    -9.85039  -16.51020  -19.54487
      H1   -10.23217  -15.59500  -19.57664
       H    -8.87960  -17.78855  -17.15383
       O    -8.71912  -16.79902  -17.17973
      H1    -7.76426  -16.72198  -17.40423
       H    -7.80613  -15.58049  -10.43599
       O    -7.60119  -15.53112   -9.50242
      H1    -8.45368  -15.86685   -9.09164
       H    -5.79887  -16.96831  -17.89372
       O    -6.06958  -16.06324  -17.84410
      H1    -5.99176  -15.84279  -16.91685
       H    -6.02189  -14.43610  -18.71429
       O    -5.98713  -13.62239  -19.23086
      H1    -5.03681  -13.54806  -19.33311
       H   -10.77882  -17.39606  -12.87003
       O   -10.17724  -18.12683  -12.59392
      H1    -9.32813  -17.67831  -12.64209
       H    -7.42673  -12.58888  -18.10198
       O    -8.17018  -12.18303  -17.69870
      H1    -8.17901  -11.28427  -17.98027

