81
frame 3 | Written by MDAnalysis XYZWriter (release 2.4.3)
       H     0.62686    9.25010   -3.88713
       O     1.17260    8.72277   -4.49935
      H1     0.93246    9.02820   -5.37023
       H    -0.78229    4.48362   -8.95504
       O    -1.29660    5.06197   -8.34517
      H1    -1.35870    5.79081   -8.98295
       H     1.42586   11.01484  -12.96121
       O     2.19152   11.10869  -12.35241
      H1     1.86147   11.69596  -11.63277
       H    -2.85656    7.44146   -5.70445
       O    -2.58204    8.36752   -5.49033
      H1    -3.25252    8.84778   -6.00217
       H    -0.81590    4.85220  -13.70453
       O    -1.30341    4.03255  -13.86032
      H1    -1.62014    3.73924  -13.00687
       H    -3.31400    7.07778  -10.34598
       O    -3.43077    6.36226  -10.97856
      H1    -3.33724    6.75607  -11.86244
       H     0.47666    8.36141   -9.18648
       O    -0.15220    7.83054   -9.67853
      H1     0.25567    6.95791   -9.93501
       H     3.92931    8.71946  -11.38489
       O     4.59328    8.25010  -10.89049
      H1     5.28616    8.95991  -10.87026
       H     0.39476    2.31751  -12.30337
       O     0.87650    2.72456  -11.59054
      H1     0.66590    3.63404  -11.48161
       H    -3.58903    9.42827   -7.75196
       O    -4.31721    9.71144   -7.17779
      H1    -4.37647   10.67423   -7.17063
       H    -0.26321    6.21172   -7.00957
       O     0.49655    6.78396   -6.79199
      H1     0.58510    6.80610   -5.82011
       H     1.69704    5.56809  -10.12394
       O     0.96426    5.53777  -10.77063
      H1     1.25463    6.01745  -11.56847
       H    -1.11346   11.75949  -10.21360
       O    -2.05681   11.51049  -10.25728
      H1    -2.61454   12.26575  -10.38834
       H     0.47713    7.30325  -13.44272
       O     0.38902    6.32173  -13.53966
      H1     1.28698    6.05479  -13.91550
       H     1.05026   11.21467   -9.34029
       O     0.71546   11.96112   -9.87481
      H1     0.99011   12.73044   -9.37332
       H     3.06862    8.87055  -14.59365
       O     2.19794    8.70062  -14.31246
      H1     2.09678    8.70053  -13.37506
       H    -1.97550    8.32833   -9.63083
       O    -2.90705    8.59618   -9.47362
      H1    -2.91901    9.45499   -9.90230
       H    -2.63105    3.09304  -10.91442
       O    -2.05846    3.82374  -11.04669
      H1    -2.77448    4.57248  -10.98663
       H    -1.28499   10.24564   -6.44375
       O    -0.76591    9.62416   -6.98219
      H1    -1.13403    8.81717   -6.60861
       H     4.31099    9.35587   -7.86277
       O     4.15589   10.34047   -7.69436
      H1     3.19627   10.46327   -7.67245
       H     4.35485    7.90274   -9.27328
       O     4.27208    7.58315   -8.36009
      H1     3.87497    6.66852   -8.38575
       H    -2.65535    8.34641  -13.19471
       O    -3.26138    7.61158  -13.26551
      H1    -2.97721    7.19940  -14.13122
       H    -1.53663   10.40384  -13.94722
       O    -1.60269   10.14849  -13.00981
      H1    -1.51752   10.96754  -12.47844
       H     1.91541    9.61887  -11.80173
       O     1.68295    8.65936  -11.58301
      H1     0.93975    8.73423  -11.00741
       H     0.74748    9.56970   -7.84545
       O     1.52566    9.51237   -8.44175
      H1     2.06928    8.90778   -7.96559
       H    -2.57249   11.98552   -8.56440
       O    -3.03336   12.37507   -7.78483
      H1    -3.29693   13.24047   -8.18353
       H     3.27888    4.48638   -7.74196
       O     2.85871    5.28154   -8.11320
      H1     1.91483    5.31993   -7.86479

