81
frame 3 | Written by MDAnalysis XYZWriter (release 2.4.3)
       H    -0.55667   10.54434    7.96975
       O    -1.44095   10.69625    8.40483
      H1    -1.72991    9.85164    8.77134
       H    -4.38811    4.90455    9.84946
       O    -4.46554    4.64600   10.75189
      H1    -4.80606    3.74668   10.76555
       H    -7.03030   10.73741   14.41143
       O    -7.39964   11.23947   15.15823
      H1    -7.47098   10.69225   15.95864
       H    -4.58515    4.05707   16.73915
       O    -3.63934    3.82736   16.70390
      H1    -3.22637    4.36577   16.00947
       H    -2.17150    5.72445    9.57270
       O    -2.16493    4.71403    9.56684
      H1    -2.67736    4.51241   10.39128
       H    -6.08459    9.84256    9.78409
       O    -6.75626   10.40666   10.21916
      H1    -6.68660   10.14116   11.16097
       H     1.12544    7.74889    9.91531
       O     0.59027    7.64067   10.73433
      H1     0.69064    8.39321   11.23167
       H    -6.10695    7.86395   11.90949
       O    -5.70554    7.17025   11.33244
      H1    -4.79803    7.09879   11.58362
       H    -4.05696   11.60205   13.63556
       O    -4.71906   11.39935   12.97897
      H1    -4.44725   11.78252   12.15248
       H    -2.49371   13.32034   10.18730
       O    -1.62750   13.71551    9.98710
      H1    -1.27051   13.38647    9.16997
       H    -3.88795    9.53418   12.97951
       O    -3.62083    8.64803   12.78972
      H1    -3.20342    8.34993   13.61336
       H    -5.03776   12.33535   10.31054
       O    -4.13285   12.10819   10.51345
      H1    -4.02577   11.24074   10.02559
       H    -1.08513    7.45828    9.74766
       O    -1.74240    7.34930    9.03493
      H1    -1.23429    7.13709    8.22769
       H    -7.47848    7.25031   15.07812
       O    -6.72955    7.52596   14.48666
      H1    -6.01258    7.69270   15.10817
       H    -2.07722    4.97202   14.31652
       O    -2.39824    5.73572   14.87339
      H1    -1.87872    5.97590   15.62084
       H     0.65545   10.58941   12.83389
       O     1.24923   11.36940   12.69592
      H1     0.73617   12.16481   12.82058
       H     0.98201    6.44605   12.95959
       O     1.05063    7.02154   13.78113
      H1     1.10232    6.43822   14.53753
       H    -4.12416    8.92874    7.79542
       O    -4.31400    8.95795    8.71832
      H1    -3.64383    8.36828    9.13151
       H    -6.66862    8.79759   13.46348
       O    -6.86106    9.64606   12.92023
      H1    -5.98518   10.08798   12.93352
       H    -2.78484   10.44986   15.13844
       O    -2.67526    9.51655   15.31971
      H1    -1.89539    9.43178   15.87657
       H    -6.49771    5.98898   13.43549
       O    -6.54162    5.13310   12.96670
      H1    -5.87440    5.23817   12.28526
       H    -8.81445    5.58640   10.06038
       O    -8.22639    5.82529    9.36660
      H1    -7.56842    6.31138    9.81553
       H    -2.02793   12.67474   15.00229
       O    -2.87992   12.17302   15.07772
      H1    -3.46187   12.55636   15.70074
       H    -0.12714    8.40923   13.68158
       O    -0.56977    9.17323   13.22764
      H1    -1.54038    8.96483   13.26645
       H    -8.30648    9.66597   10.36320
       O    -9.27211    9.51990   10.50873
      H1    -9.49284    8.84705    9.89777
       H    -4.71298    8.95084   17.10500
       O    -4.69015    8.32304   16.40471
      H1    -4.03147    8.68568   15.77339
       H    -4.19514    7.54089   18.12278
       O    -3.87582    7.37379   19.00610
      H1    -4.65502    7.40392   19.61517

