81
frame 3 | Written by MDAnalysis XYZWriter (release 2.4.3)
       H   -11.62253   -7.60495   17.89701
       O   -12.42421   -8.01361   18.21232
      H1   -12.75430   -7.64922   19.01014
       H   -10.24576  -10.01493   17.68167
       O   -10.91527  -10.20864   18.32612
      H1   -11.47486   -9.43991   18.27589
       H    -8.04375   -4.66964   18.11989
       O    -8.02632   -4.37880   19.03229
      H1    -7.33357   -4.96337   19.42737
       H   -10.66404   -2.88920   15.99691
       O   -10.46858   -3.18630   16.88008
      H1   -10.87955   -4.05192   16.78354
       H    -9.83670   -8.38791   16.26749
       O    -9.62543   -9.29354   15.93264
      H1    -9.64397   -9.26891   14.97928
       H    -8.01663   -3.67526   13.32384
       O    -7.29321   -4.00075   13.97484
      H1    -6.99278   -4.82474   13.44835
       H    -7.27555   -8.59583   15.78586
       O    -6.65613   -7.91504   15.54464
      H1    -6.73340   -7.60774   14.62986
       H    -5.36614   -8.73519   18.91361
       O    -6.34009   -9.04804   18.86320
      H1    -6.22433   -9.79773   18.24957
       H   -10.65689   -0.68019   19.23190
       O   -11.32254   -0.03549   19.48897
      H1   -12.05936   -0.25193   18.88913
       H    -8.32207   -0.34045   18.28084
       O    -7.87916    0.07500   17.54720
      H1    -7.08084   -0.39512   17.31028
       H    -9.94100    1.81877   18.99988
       O    -9.86401    2.45947   18.28406
      H1    -8.95488    2.75560   18.36448
       H    -4.87097   -1.93961   12.84393
       O    -5.75010   -1.85106   13.21156
      H1    -6.15492   -2.73629   13.32185
       H   -13.51890   -6.77355   16.78244
       O   -14.07154   -6.15195   16.25410
      H1   -15.04824   -6.32536   16.42486
       H   -12.49576   -3.88655   14.11099
       O   -11.86587   -3.21633   14.39141
      H1   -11.49693   -2.75618   13.66575
       H   -12.93679   -1.30216   16.52840
       O   -12.74466   -1.52858   17.46332
      H1   -12.02641   -2.23352   17.44743
       H    -3.23480   -5.01039   15.65642
       O    -2.62496   -4.24898   15.69621
      H1    -2.98219   -3.71205   16.43021
       H    -9.09534   -1.55757   15.68793
       O    -9.50454   -1.24103   14.91832
      H1    -9.57273   -0.30845   14.92579
       H    -7.02904    1.48470   20.44268
       O    -6.91061    1.69296   19.46120
      H1    -6.95263    0.86248   18.96927
       H   -11.17999   -7.13837   13.32116
       O   -10.76062   -6.33082   13.03617
      H1   -11.23038   -5.61599   13.48505
       H    -8.03253   -4.83965   15.57927
       O    -7.86621   -5.41501   16.28759
      H1    -7.22054   -6.10991   16.02954
       H    -9.64715   -6.96531   18.15528
       O   -10.06813   -6.77451   17.28024
      H1    -9.30897   -6.48633   16.75042
       H   -10.05087    1.97981   15.04607
       O    -9.19715    1.54364   15.19684
      H1    -9.18527    1.22884   16.14467
       H    -5.64093   -1.73653   15.74394
       O    -5.56008   -1.00621   16.36213
      H1    -5.16630   -0.27544   15.88885
       H    -3.35710   -7.96946   18.51848
       O    -3.97202   -7.23020   18.82955
      H1    -3.34436   -6.66288   19.32728
       H    -2.59723   -1.93229   18.28476
       O    -3.47046   -2.37035   18.12449
      H1    -3.90517   -1.73913   17.56144
       H   -14.44822   -4.41000   17.03144
       O   -14.54783   -3.65747   17.63546
      H1   -13.88783   -2.98549   17.40047
       H    -5.45640   -6.71762   16.36613
       O    -4.60406   -6.22194   16.35815
      H1    -4.23718   -6.28804   17.21540

