81
frame 3 | Written by MDAnalysis XYZWriter (release 2.4.3)
       H     4.92277   16.32267  -14.92462
       O     5.02885   17.23870  -15.14254
      H1     4.24725   17.32572  -15.70971
       H     8.76306    8.58951  -12.30413
       O     8.92714    9.27467  -11.62289
      H1     9.04089    8.82829  -10.70612
       H     9.56730   14.60248  -13.43495
       O     9.21912   15.18269  -14.11034
      H1     8.82674   14.58014  -14.78384
       H     7.92983   15.36108  -12.58202
       O     7.07872   15.14749  -12.15115
      H1     6.89929   15.89379  -11.54190
       H     1.65399   16.47703  -12.36978
       O     1.36096   15.70407  -11.85248
      H1     0.87382   16.12509  -11.14983
       H     1.42586   11.01484  -12.96121
       O     2.19152   11.10869  -12.35241
      H1     1.86147   11.69596  -11.63277
       H     7.51457   12.53326   -7.01348
       O     8.07820   12.34462   -6.27170
      H1     7.83901   11.51792   -5.86736
       H    10.57364   13.49965  -11.26917
       O    10.26027   13.64347  -12.14970
      H1    10.10087   12.76952  -12.56083
       H     3.92931    8.71946  -11.38489
       O     4.59328    8.25010  -10.89049
      H1     5.28616    8.95991  -10.87026
       H     9.39929   14.86571   -8.10323
       O     9.09983   15.74910   -8.09436
      H1     9.54911   16.29953   -8.77152
       H     6.03854   16.11007   -8.02520
       O     6.45552   15.76452   -8.80278
      H1     7.36096   15.60950   -8.45517
       H     7.92359   13.09206  -15.94745
       O     7.77985   13.98885  -16.20667
      H1     6.79684   14.05650  -16.27884
       H     3.77415   18.15880  -11.95183
       O     3.97389   18.55719  -11.07015
      H1     3.28494   18.16482  -10.47169
       H     4.24782   17.48341   -6.49992
       O     4.66422   16.93271   -7.15371
      H1     4.14020   16.02637   -7.06363
       H     6.13104   17.11500  -10.01894
       O     6.48254   17.83138  -10.61826
      H1     5.66720   18.29255  -10.82402
       H     9.63298   12.68384   -6.95703
       O    10.26316   13.00912   -7.60032
      H1    11.06787   13.26985   -7.06489
       H     6.49747   13.92257  -11.10317
       O     6.05776   13.17297  -10.65930
      H1     5.07976   13.35534  -10.68498
       H     3.31008   11.33727  -15.86135
       O     3.38470   12.15145  -15.31245
      H1     3.87937   11.81711  -14.52281
       H    10.11340   11.24116  -14.05779
       O     9.33828   11.49047  -13.56001
      H1     9.32189   10.89917  -12.83676
       H     4.31099    9.35587   -7.86277
       O     4.15589   10.34047   -7.69436
      H1     3.19627   10.46327   -7.67245
       H     7.28551   10.30253  -11.21441
       O     6.34978   10.51207  -11.10878
      H1     6.32486   11.42288  -10.84273
       H     4.19946   14.81022  -11.92690
       O     3.55724   14.38479  -11.34910
      H1     2.68926   14.74306  -11.65839
       H     3.88171   14.19383   -6.16168
       O     3.64396   14.28137   -7.06820
      H1     4.38742   13.86839   -7.55197
       H     6.08299   11.31715  -13.96136
       O     5.29899   11.00790  -13.59966
      H1     5.53554   10.65981  -12.74113
       H     5.69450   12.88948   -8.78808
       O     5.68698   12.66544   -7.81320
      H1     5.12814   11.89175   -7.77534
       H     9.17043   19.90304  -12.62329
       O     8.77474   19.76783  -11.71794
      H1     8.21960   19.00180  -11.83623
       H     8.00195   11.25603  -14.80100
       O     7.30347   11.31865  -15.42928
      H1     7.30505   10.53536  -16.01230

