81
frame 4 | Written by MDAnalysis XYZWriter (release 2.4.3)
       H    14.31854    2.19319  -16.97334
       O    14.86257    2.79345  -17.49985
      H1    14.65076    2.73513  -18.42673
       H    15.65428   -1.40435  -17.06798
       O    15.43397   -0.55844  -16.69928
      H1    15.91715   -0.47824  -15.88828
       H    15.98467   -5.90390  -19.78444
       O    16.93572   -5.92652  -19.40789
      H1    16.85203   -6.03311  -18.46742
       H    12.74223    0.54190  -17.26253
       O    13.21400    0.77290  -16.39874
      H1    14.03787    0.26281  -16.52684
       H    17.05092   -5.19105  -14.32392
       O    16.54803   -6.05546  -14.26814
      H1    15.80381   -5.85736  -13.72074
       H    17.78355   -0.39306  -15.54756
       O    17.31951    0.16734  -14.92147
      H1    17.10200    0.94157  -15.46154
       H    18.68096    7.24334  -16.46477
       O    19.68540    7.35648  -16.72731
      H1    19.94619    6.53041  -17.17803
       H    16.17466   -3.30707  -18.50535
       O    15.46876   -2.86503  -17.97968
      H1    15.02287   -3.62532  -17.52477
       H    13.84504   -2.35491  -14.82197
       O    13.19418   -2.23145  -15.49762
      H1    13.08408   -1.30356  -15.72610
       H    14.80611   -2.19130  -11.93381
       O    14.40783   -2.14980  -11.06843
      H1    13.41681   -2.36088  -11.27788
       H    17.80030   -4.49369  -19.43637
       O    17.95820   -3.57674  -19.14263
      H1    18.69311   -3.62467  -18.50909
       H    19.11919   -3.72319  -16.11355
       O    19.63024   -3.42694  -16.78196
      H1    19.36542   -2.47071  -16.88010
       H    18.03574   -2.53453  -11.40859
       O    17.97092   -3.42396  -10.99089
      H1    17.15796   -3.38254  -10.48653
       H    15.13891    4.55544  -17.64905
       O    14.99242    5.56143  -17.54594
      H1    15.30674    5.97588  -18.34781
       H    18.21722    2.99728  -11.03576
       O    17.92051    3.64330  -10.41057
      H1    17.16384    4.10445  -10.75968
       H    17.52125    5.89837  -12.75098
       O    18.20642    6.52075  -12.92359
      H1    18.99244    5.99564  -13.16425
       H    19.47551   -0.02586  -16.43763
       O    18.95368   -0.70237  -16.87755
      H1    18.81868   -0.35669  -17.76698
       H    18.03593    4.96340  -15.72567
       O    18.43146    4.09949  -15.49995
      H1    17.76138    3.38545  -15.61330
       H    15.12166    1.68156  -13.76961
       O    14.75502    0.85109  -13.43941
      H1    13.79462    0.82452  -13.60486
       H    17.55279   -0.21760  -18.46643
       O    17.75923   -0.53522  -19.34025
      H1    17.79774   -1.52805  -19.24634
       H    16.43623    3.33099  -13.96356
       O    15.74344    3.07070  -14.58169
      H1    14.94964    3.57906  -14.60010
       H    18.31787   -2.76572  -14.05608
       O    17.54321   -3.37932  -14.08871
      H1    17.52394   -3.72044  -13.20735
       H    18.49359    0.28650  -12.06134
       O    18.37304   -0.60220  -11.73483
      H1    17.85386   -0.52471  -10.92981
       H    16.12681   -2.30590  -14.03341
       O    15.29645   -2.09061  -13.66858
      H1    15.20659   -1.12096  -13.85968
       H    18.18476    2.30395  -17.87860
       O    17.51759    1.84907  -17.34528
      H1    16.61797    2.24184  -17.45158
       H    19.82899   -5.81773  -16.73438
       O    19.14413   -6.42201  -17.05692
      H1    19.54786   -7.04555  -17.67840
       H    17.85546    1.20242  -13.52098
       O    18.55876    1.68818  -13.03544
      H1    19.34922    1.61287  -13.61180

