81
frame 3 | Written by MDAnalysis XYZWriter (release 2.4.3)
       H    -7.03205    4.80812  -18.85191
       O    -6.17076    4.96009  -18.42105
      H1    -5.43516    4.57582  -18.91942
       H    -9.02596   -4.55634  -16.33833
       O    -9.45735   -5.26599  -16.86849
      H1    -9.84623   -4.87015  -17.64974
       H    -9.12144   -0.09855  -16.67936
       O    -9.73659   -0.76461  -16.90239
      H1   -10.52911   -0.30375  -17.24972
       H    -3.62337   -1.99979  -17.15826
       O    -2.91916   -2.66934  -16.96313
      H1    -2.70562   -2.57015  -16.02812
       H    -6.35678    5.62841  -15.70473
       O    -5.95246    6.47490  -15.41055
      H1    -5.05128    6.27071  -15.40996
       H    -1.94679   -2.55690  -13.92393
       O    -1.24506   -2.70659  -14.47561
      H1    -0.84387   -3.54902  -14.22721
       H    -7.64114    0.96605  -12.42271
       O    -7.98430    0.14382  -12.90105
      H1    -8.88767    0.04018  -12.55174
       H    -8.45821   -1.08676  -18.85492
       O    -8.62435   -1.50119  -19.71525
      H1    -8.11756   -2.37311  -19.63857
       H    -4.79133    1.62087  -19.55593
       O    -4.04167    1.34390  -19.02452
      H1    -4.02528    1.80829  -18.16324
       H    -7.47666   -2.84246  -11.31673
       O    -7.01084   -1.99855  -11.17539
      H1    -7.26999   -1.42388  -11.88734
       H    -9.38534   -2.50130  -15.94033
       O    -8.76897   -2.99275  -15.35183
      H1    -9.30611   -3.11105  -14.55052
       H    -3.58067   -5.82865  -16.78269
       O    -4.20124   -5.08494  -16.64687
      H1    -3.77616   -4.25608  -16.91327
       H   -10.45929    4.01201  -16.12013
       O    -9.63776    3.74642  -15.70365
      H1    -9.89827    3.20027  -14.96372
       H    -4.96132   -1.76853  -18.69766
       O    -4.84859   -1.23253  -17.89758
      H1    -4.72630   -0.33625  -18.17492
       H    -6.07872    0.55164  -16.93521
       O    -6.78932    1.18249  -17.16756
      H1    -6.50918    2.04731  -16.80813
       H    -8.38476    5.73176  -20.04024
       O    -8.70602    5.44513  -19.19913
      H1    -9.58412    5.12592  -19.27393
       H    -0.18866    1.98883  -16.05879
       O     0.18454    2.89073  -16.17502
      H1    -0.40394    3.48957  -15.73796
       H    -9.23984    1.25526  -13.36423
       O    -9.96502    1.82240  -13.70336
      H1   -10.26144    2.41183  -12.97180
       H    -2.70119    5.76096  -15.88735
       O    -3.27778    5.43506  -15.15811
      H1    -2.62836    5.13200  -14.53926
       H    -6.61393    4.16274  -17.11649
       O    -6.87471    3.80374  -16.18407
      H1    -7.82925    3.82523  -16.19473
       H    -1.32023   -0.09785  -16.26852
       O    -1.77335    0.52948  -15.69597
      H1    -1.37575    0.39393  -14.83401
       H    -2.93565    1.98404  -16.37138
       O    -3.70262    2.49328  -16.60449
      H1    -3.65540    3.40460  -16.24708
       H     0.07533   -1.12877  -17.58541
       O    -0.86541   -0.80587  -17.75819
      H1    -1.51990   -1.53572  -17.55756
       H   -12.03887   -0.26243  -15.25354
       O   -12.33041    0.46670  -14.65092
      H1   -11.52629    0.84884  -14.28105
       H    -6.27358   -3.09055  -15.01547
       O    -5.64670   -3.72204  -14.73379
      H1    -5.30027   -4.23372  -15.45465
       H    -7.90474    2.71246  -10.86995
       O    -7.18769    2.35489  -11.37492
      H1    -7.18345    2.85996  -12.21245
       H    -6.50474    4.06991  -14.43937
       O    -6.57556    4.12542  -13.47223
      H1    -6.86903    5.04761  -13.36886

