81
frame 4 | Written by MDAnalysis XYZWriter (release 2.4.3)
       H     1.02967   -7.55774   13.65896
       O     1.62839   -7.22763   14.34274
      H1     2.49662   -7.38699   13.97661
       H    -3.45747  -13.41136   19.45250
       O    -4.12253  -12.83444   19.10947
      H1    -4.11640  -12.91436   18.14561
       H    -0.43501  -14.34546   19.67239
       O    -0.86771  -13.52156   19.42837
      H1    -0.31700  -13.16563   18.74604
       H    -2.50591   -9.50006   13.34035
       O    -1.72451   -9.89368   12.81105
      H1    -2.17504  -10.52251   12.18312
       H    -6.62620   -8.29601   15.11847
       O    -6.84949   -7.40047   14.88318
      H1    -7.43908   -7.54291   14.10769
       H    -2.28727  -12.82684   15.45066
       O    -2.66929  -13.64199   15.08235
      H1    -3.20076  -13.46386   14.29080
       H    -1.14536   -4.20871   13.91557
       O    -2.08889   -4.49700   13.98400
      H1    -2.08366   -4.56504   14.99266
       H    -5.51319  -13.10608   16.64244
       O    -4.98715  -12.59725   16.04932
      H1    -4.29424  -13.26821   15.79594
       H    -2.21804   -8.77609   16.78733
       O    -2.52550   -9.42907   17.45369
      H1    -1.99382   -9.24572   18.26796
       H    -0.57248  -11.85250   16.63588
       O    -1.13595  -11.32735   15.98374
      H1    -1.72073  -10.84956   16.62293
       H    -6.68328   -8.60369   18.32596
       O    -6.59973   -9.18503   19.08637
      H1    -6.91006  -10.06376   18.64944
       H    -1.92520   -7.21444   12.35492
       O    -2.18574   -7.01191   13.20866
      H1    -1.97752   -6.10329   13.46435
       H    -1.18689   -7.63016   14.66883
       O    -1.06943   -8.29071   15.38047
      H1    -0.87355   -9.16212   15.05423
       H    -0.19892  -11.01036   13.79726
       O     0.68649  -11.27307   13.60356
      H1     0.99066  -11.69822   14.41226
       H    -5.34033  -12.38900   13.16263
       O    -6.07943  -11.80684   13.02963
      H1    -6.17787  -11.34509   13.87103
       H     2.83355   -9.10741   19.49613
       O     1.91604   -9.38550   19.30208
      H1     1.76423   -9.16027   18.36985
       H    -6.21740  -10.64577   16.47965
       O    -6.43786   -9.87604   15.93753
      H1    -7.38385   -9.69405   16.09165
       H    -2.11093   -5.59096   19.84485
       O    -2.67299   -5.35146   19.11983
      H1    -3.29137   -4.62363   19.33340
       H    -4.72323   -8.72612   14.23643
       O    -4.07004   -8.99114   13.61416
      H1    -3.65794   -8.11808   13.42434
       H    -0.51255   -7.74934   18.60522
       O    -0.65707   -8.28931   19.40463
      H1     0.21605   -8.73787   19.51670
       H    -2.23029   -4.52191   17.49068
       O    -1.78006   -4.35643   16.60875
      H1    -1.72353   -3.40222   16.49130
       H    -0.39780   -5.86166   17.12619
       O    -0.00429   -6.75886   17.29478
      H1    -0.42544   -7.36150   16.68969
       H    -3.83438   -8.43251   17.90345
       O    -4.30290   -7.62030   18.01670
      H1    -3.60290   -7.09055   18.41814
       H    -5.15554   -6.33187   15.04561
       O    -4.28590   -6.25799   15.52587
      H1    -4.35341   -6.75128   16.33654
       H    -7.80629  -12.12437   17.79170
       O    -7.06237  -11.75646   18.24957
      H1    -6.85914  -12.32395   19.01604
       H     1.95995   -8.11837   15.84160
       O     2.35603   -8.61686   16.58407
      H1     2.59347   -7.96188   17.26629
       H     1.33740  -12.97221   17.02435
       O     0.84008  -12.48720   17.65579
      H1     1.37485  -12.51306   18.48690

