81
frame 3 | Written by MDAnalysis XYZWriter (release 2.4.3)
       H    15.23015   -0.86809   13.54638
       O    15.57951   -1.42399   14.24698
      H1    14.88352   -1.53342   14.88011
       H    17.26224   -2.89958   17.62776
       O    16.35277   -2.59865   17.38811
      H1    15.71288   -3.27594   17.66040
       H    16.78872    0.29268   17.19342
       O    15.84172    0.13298   17.34399
      H1    15.79979   -0.81996   17.31684
       H    17.99656    2.29014   12.97932
       O    18.64206    2.64665   12.38508
      H1    19.32801    2.96837   13.02332
       H    12.05092    2.36367   13.38689
       O    12.49970    1.68782   13.94478
      H1    13.15457    1.25679   13.40502
       H    14.70382    0.91343   11.99977
       O    14.24925    0.16798   12.41981
      H1    13.59814   -0.14084   11.82713
       H    14.74291    3.50236   13.63391
       O    14.55351    3.93606   14.46112
      H1    14.27674    3.23197   15.05158
       H    13.04816   -3.65093   13.74259
       O    12.41260   -3.08065   13.31534
      H1    12.56240   -3.16701   12.33484
       H    12.98487   -2.01179   14.82690
       O    13.32790   -1.86484   15.71674
      H1    12.71010   -1.43801   16.28935
       H    18.89814   -0.94570   17.63504
       O    19.10066   -1.85296   17.87448
      H1    18.88030   -2.41162   17.08493
       H    16.47308   -0.24578   10.59539
       O    17.10626    0.34254   11.06839
      H1    17.71785    0.69038   10.38035
       H    19.86701   -3.81795   14.70208
       O    19.27349   -3.31051   15.28825
      H1    19.12746   -2.42858   14.84326
       H    15.30813   -7.38256   13.45865
       O    15.85239   -6.87101   12.78714
      H1    15.68514   -5.93604   13.01287
       H    14.79432    2.71965   18.66943
       O    15.54316    2.28267   19.16942
      H1    15.39835    1.36564   18.94972
       H    12.16772   -4.09085   17.80271
       O    13.10663   -4.04379   17.64181
      H1    13.27728   -3.77260   16.70490
       H    15.78040    3.11065   11.25017
       O    15.72488    2.49636   11.98501
      H1    16.34861    1.75988   11.82226
       H    13.27868   -0.71261   18.78767
       O    12.57191   -0.26397   18.30430
      H1    11.74945   -0.73394   18.52692
       H    15.65971   -5.78142   17.05212
       O    15.16240   -5.76278   17.85570
      H1    14.37824   -5.27868   17.59085
       H    17.68267   -6.32028   15.55451
       O    17.21181   -5.45427   15.69389
      H1    17.93088   -4.77627   15.60675
       H    10.23588    1.93800   17.94684
       O    10.78117    1.64659   17.20555
      H1    11.53214    1.12670   17.52758
       H    14.58154    1.43487   16.52024
       O    13.94610    2.14391   16.28097
      H1    13.41415    1.69253   15.57941
       H    18.50302   -0.11125   14.12243
       O    18.61492   -1.00527   13.85590
      H1    17.80313   -1.33204   13.45961
       H    16.26189   -4.41592   14.52355
       O    15.56039   -4.21402   13.88823
      H1    15.50730   -3.25094   13.98480
       H    11.47904   -3.58485   10.24090
       O    12.36771   -3.30376   10.54319
      H1    12.82313   -3.37251    9.66905
       H     9.70837   -0.02628   14.14754
       O     9.69797   -0.41085   15.05899
      H1    10.06808    0.31615   15.60546
       H    10.61987   -3.31925   14.07318
       O     9.86702   -3.05212   14.60670
      H1     9.87240   -2.12731   14.78597
       H    19.01713    1.40331   15.87032
       O    18.37365    1.62131   15.20016
      H1    17.77894    2.24369   15.60819

