81
frame 4 | Written by MDAnalysis XYZWriter (release 2.4.3)
       H   -19.59179    0.37658  -10.84356
       O   -18.85454    0.82473  -10.42544
      H1   -18.60387    0.25308   -9.71717
       H   -13.68319    1.19450   -7.24831
       O   -12.95771    1.01958   -6.62752
      H1   -12.15934    1.05727   -7.21816
       H   -10.24407   -1.12161  -11.09867
       O   -10.46435   -0.58923  -11.87234
      H1   -11.11645   -1.10197  -12.34832
       H   -18.15923   -3.12216  -11.13715
       O   -17.86349   -2.74747  -11.98187
      H1   -18.18556   -3.52868  -12.53033
       H   -16.92615   -4.98774   -6.58722
       O   -17.12184   -5.24768   -5.68237
      H1   -17.34082   -4.36073   -5.28729
       H   -16.12925    0.55672  -13.66776
       O   -15.33685    0.17462  -13.27854
      H1   -14.73518    0.10737  -14.03569
       H   -15.87363   -3.15737  -11.88064
       O   -14.91232   -3.27423  -11.95901
      H1   -14.72363   -4.08465  -11.44227
       H   -11.44100   -5.76118  -10.06838
       O   -11.91398   -5.65119   -9.21824
      H1   -11.74615   -4.74002   -8.91250
       H   -19.72604   -4.05166   -9.96321
       O   -18.76352   -4.20245  -10.03701
      H1   -18.35130   -4.37304   -9.15020
       H   -15.72010   -1.70978   -8.83640
       O   -15.46951   -2.64720   -8.99975
      H1   -15.08534   -2.60193   -9.88375
       H   -14.96605   -2.75451   -4.37440
       O   -14.96365   -2.17891   -5.11398
      H1   -14.04320   -2.26096   -5.40608
       H   -15.53363    1.29697  -11.73294
       O   -15.74084    2.11888  -11.19781
      H1   -16.53751    2.48641  -11.63181
       H   -16.48905   -5.61955   -8.94893
       O   -16.77374   -4.90738   -8.33221
      H1   -16.23100   -4.11203   -8.61228
       H   -13.44250   -0.06146  -10.32780
       O   -12.57922   -0.25196   -9.99133
      H1   -11.99006   -0.06467  -10.82261
       H   -13.57266   -2.20761  -12.70218
       O   -12.77010   -1.82560  -13.08212
      H1   -13.06598   -1.40348  -13.91590
       H   -19.95203   -1.99821   -7.07484
       O   -19.23602   -2.69418   -7.03081
      H1   -18.38759   -2.29439   -7.29667
       H   -18.30333   -2.68957   -5.65319
       O   -17.95814   -2.83968   -4.75202
      H1   -17.08423   -2.45145   -4.72249
       H   -12.26780   -1.32647   -4.37922
       O   -12.19455   -1.41719   -5.35202
      H1   -12.55984   -0.63732   -5.70883
       H   -19.65180   -0.89811  -13.27343
       O   -19.31217   -1.18981  -14.11564
      H1   -18.37414   -1.40058  -13.87079
       H   -11.51083   -3.22731  -13.62648
       O   -10.73183   -3.65837  -14.07344
      H1   -11.01339   -4.53746  -14.41583
       H   -18.25859   -0.01887   -7.11732
       O   -17.84981   -0.50196   -7.79035
      H1   -17.08226    0.03478   -8.17437
       H   -16.12158    1.16424   -9.56242
       O   -15.87119    0.76020   -8.74883
      H1   -15.74942    1.48579   -8.13350
       H   -11.92394   -2.21566   -8.60319
       O   -11.79513   -3.09876   -8.17956
      H1   -12.00043   -2.94938   -7.25674
       H   -17.64895   -5.82362  -10.41150
       O   -17.11648   -6.57689  -10.28328
      H1   -16.23303   -6.32253  -10.73704
       H   -15.75423   -3.10162  -15.71784
       O   -14.94153   -3.51402  -15.40877
      H1   -15.18922   -3.55495  -14.49038
       H   -11.56992    0.73356   -9.04485
       O   -10.77012    1.17766   -8.64023
      H1   -10.18907    0.50233   -8.27058
       H   -13.80119   -5.87807  -11.25039
       O   -14.29464   -5.49469  -10.49582
      H1   -13.65010   -5.37981   -9.77178

