81
frame 4 | Written by MDAnalysis XYZWriter (release 2.4.3)
       H     3.53668  -17.02035   -9.98765
       O     2.94793  -17.78452   -9.86930
      H1     3.03429  -18.28416  -10.70444
       H     6.33011  -10.42300   -9.17424
       O     6.72220   -9.56028   -8.98931
      H1     6.23971   -8.81322   -9.34086
       H     6.77957  -13.51183  -12.15187
       O     5.98438  -13.15903  -12.59432
      H1     6.17927  -12.22555  -12.49371
       H     7.75186  -14.11324   -2.69421
       O     7.17213  -14.60729   -3.28973
      H1     7.74430  -14.69543   -4.10877
       H     7.17940  -17.74514   -9.75363
       O     7.52775  -16.88860  -10.13383
      H1     7.50728  -16.98439  -11.11907
       H     5.64080  -16.82470   -6.36496
       O     5.36578  -16.49089   -5.46545
      H1     4.45481  -16.26682   -5.50902
       H     5.72525  -12.67632   -9.05894
       O     6.58044  -12.66306   -8.57635
      H1     6.43545  -11.97267   -7.84410
       H    11.51033  -12.19768   -8.74916
       O    10.61629  -12.41284   -9.04634
      H1    10.56804  -13.36623   -9.00576
       H     6.68929  -14.37277   -8.05446
       O     6.66569  -15.33572   -7.91837
      H1     6.94732  -15.68902   -8.77179
       H     8.03262  -18.36142   -4.93461
       O     8.25236  -17.75991   -5.68219
      H1     7.62399  -17.02892   -5.49181
       H     2.77266  -12.36354   -8.59077
       O     3.59708  -12.16712   -9.14785
      H1     3.32717  -12.60004  -10.01163
       H     6.24926  -16.29677   -3.01836
       O     5.78367  -17.13258   -2.91658
      H1     5.44944  -17.22565   -3.84784
       H     9.92282  -17.21398   -5.12939
       O    10.63876  -16.73500   -4.64769
      H1    10.49581  -15.84889   -4.64707
       H     8.57625  -11.73138   -6.49850
       O     9.41333  -12.17689   -6.58151
      H1     9.56534  -12.07497   -7.55687
       H    10.85058  -13.70310   -6.89965
       O    11.06960  -14.61708   -7.16801
      H1    10.22058  -15.00605   -6.83270
       H    10.70092  -15.46851  -10.36821
       O     9.82614  -15.15599  -10.12949
      H1     9.23368  -15.91687  -10.19638
       H     6.44492  -19.52514   -9.52835
       O     6.74258  -19.03315   -8.69534
      H1     5.94041  -19.23243   -8.08613
       H     4.29511  -16.30871  -12.19746
       O     4.50046  -15.83800  -11.31946
      H1     5.17183  -15.17098  -11.58820
       H     2.23540  -14.52651  -10.50694
       O     1.38897  -14.11534  -10.22304
      H1     1.10659  -14.58830   -9.38060
       H     3.75477  -13.91271   -8.04013
       O     3.97298  -14.82932   -8.05847
      H1     4.90105  -14.87435   -7.74498
       H     9.22897  -13.46315  -12.41221
       O     8.62074  -13.35641  -11.67105
      H1     9.12252  -13.73136  -10.91116
       H     3.00584  -15.60833   -6.79780
       O     2.52988  -16.17522   -6.16891
      H1     2.46759  -15.72715   -5.28304
       H     8.94602  -19.75278  -13.01540
       O     8.50369  -19.18766  -12.38060
      H1     7.76956  -19.69441  -12.09193
       H     8.93732  -10.13732  -11.70079
       O     8.26018  -10.75794  -11.96413
      H1     8.52651  -11.64789  -11.74583
       H     8.04860  -15.02949   -6.57918
       O     8.63927  -14.81098   -5.85903
      H1     8.90154  -13.87751   -6.05338
       H     3.24830  -18.43444   -8.49866
       O     3.19722  -18.69141   -7.56016
      H1     3.08178  -17.87632   -7.05079
       H     8.62137  -16.13008  -13.83873
       O     7.86725  -16.67237  -13.67635
      H1     8.26258  -17.53896  -13.44974

