81
frame 4 | Written by MDAnalysis XYZWriter (release 2.4.3)
       H   -11.80744   14.18990  -10.65835
       O   -12.67752   13.82328  -10.31826
      H1   -13.14520   13.49083  -11.04669
       H   -15.45362   14.18912  -13.80628
       O   -16.14114   14.81038  -13.55667
      H1   -16.28592   15.30583  -14.39077
       H   -13.41901   20.09052   -5.03005
       O   -12.54047   19.95192   -4.67667
      H1   -12.59584   19.20441   -4.07140
       H   -10.90305   17.40615   -9.05288
       O   -10.45717   17.19463   -9.91237
      H1    -9.51787   17.24532   -9.66675
       H   -18.80628   17.29542   -6.30662
       O   -18.66979   18.23860   -6.39412
      H1   -19.47552   18.68393   -5.91568
       H   -18.14122   17.95746  -13.90384
       O   -17.58971   17.50236  -14.55202
      H1   -17.82369   17.89325  -15.39648
       H   -15.70428   17.35559  -18.95322
       O   -15.47645   17.41562  -17.99363
      H1   -15.89907   16.69419  -17.50574
       H   -10.42758   17.52444   -6.93242
       O   -11.28790   17.36120   -7.30891
      H1   -11.89976   17.32561   -6.55479
       H   -17.08472   13.06714  -13.43019
       O   -17.11395   12.24573  -14.02321
      H1   -17.59321   11.48755  -13.59260
       H   -12.62228   13.80836  -14.02040
       O   -13.49110   13.49062  -14.19341
      H1   -13.38199   13.37956  -15.13656
       H   -16.41073   14.19223  -11.47189
       O   -16.07031   13.52022  -10.85849
      H1   -15.53139   13.94931  -10.20620
       H   -14.44301   17.03522  -11.99628
       O   -14.26160   16.10560  -11.94126
      H1   -14.93511   15.67934  -12.47017
       H   -15.01273   19.79587  -11.09772
       O   -15.80020   19.17494  -11.28986
      H1   -16.54375   19.76057  -11.47280
       H   -13.84652   17.17086   -6.99016
       O   -13.55987   16.79132   -6.17111
      H1   -13.71989   15.84135   -6.27582
       H   -19.16789   14.57367  -12.35276
       O   -18.70914   14.38294  -11.52327
      H1   -18.69841   15.24836  -11.07909
       H   -16.02124   18.97687   -9.69920
       O   -16.20246   18.59215   -8.79585
      H1   -15.84239   19.19584   -8.17767
       H   -18.38975   18.77228  -17.47144
       O   -17.99414   19.39300  -16.81354
      H1   -17.06693   19.47170  -17.08790
       H   -11.90074   14.37138   -8.77873
       O   -11.65184   14.56490   -7.83569
      H1   -11.50950   15.50539   -7.64875
       H   -16.84270   18.22365   -5.32315
       O   -16.02133   18.28822   -4.85281
      H1   -15.52777   17.65969   -5.33885
       H   -18.71902   17.40967   -9.84200
       O   -18.67035   16.43963   -9.72261
      H1   -17.85513   16.34944   -9.22643
       H   -15.04036   17.15781   -9.13620
       O   -14.57539   16.28308   -9.21612
      H1   -14.27636   16.20258  -10.15429
       H   -11.99843   16.62845  -15.65724
       O   -11.95217   17.00371  -14.75195
      H1   -12.84897   17.32872  -14.60912
       H   -10.42774   18.06054  -14.33282
       O    -9.51767   18.38282  -14.32290
      H1    -9.58797   19.28186  -13.95507
       H   -10.49483   20.11400  -11.69897
       O   -10.89793   19.85435  -10.87346
      H1   -10.86736   18.89756  -10.84416
       H   -10.11148   14.53373  -11.78306
       O   -10.12288   14.48722  -10.84060
      H1   -10.27661   15.44317  -10.52994
       H   -16.03485   18.14746  -14.26311
       O   -15.14624   18.49573  -14.07426
      H1   -15.26784   18.93657  -13.23806
       H   -15.75885   15.38466   -8.13680
       O   -16.48881   14.95213   -7.59177
      H1   -16.32930   13.97974   -7.46695

