81
frame 5 | Written by MDAnalysis XYZWriter (release 2.4.3)
       H     1.21456   17.38110  -10.16670
       O     1.77974   16.71976  -10.54155
      H1     2.34505   16.47968   -9.73481
       H     3.29875   16.85087  -15.70942
       O     3.22166   17.79991  -15.94057
      H1     3.44586   17.82368  -16.87629
       H    -4.76158   14.55010  -15.52600
       O    -3.90662   14.99115  -15.70955
      H1    -4.00382   15.27321  -16.62153
       H    -3.33906   16.99173  -12.86014
       O    -3.02455   17.79172  -13.27393
      H1    -3.10408   17.64788  -14.22218
       H     0.20503   16.35047  -13.42838
       O     0.45520   15.70611  -12.76790
      H1     0.48069   16.27403  -11.97894
       H     2.62851   14.28997  -14.85350
       O     2.87173   15.14562  -15.30844
      H1     3.21606   14.83848  -16.18754
       H     0.76673   15.31993  -18.14400
       O     1.06042   16.19737  -17.87750
      H1     1.47215   16.10136  -17.02705
       H    -3.61428   16.64729  -18.81491
       O    -3.47622   15.87480  -18.25603
      H1    -4.07969   15.16816  -18.47698
       H    -0.99190   18.74054  -10.57541
       O    -0.99490   18.33981   -9.70166
      H1    -1.91757   18.46789   -9.37135
       H    -1.70886   17.32875  -15.97264
       O    -2.54132   17.79028  -15.87517
      H1    -3.12602   17.35132  -16.51610
       H    -1.52123   13.39152  -13.11586
       O    -1.63643   14.11111  -12.43875
      H1    -0.95381   14.76711  -12.61232
       H    -6.42726   17.86661  -18.54148
       O    -6.49084   18.62387  -17.91542
      H1    -6.61472   19.38946  -18.47525
       H     4.51141   17.47787  -13.15542
       O     3.76457   17.88700  -12.70711
      H1     3.22798   17.17906  -12.27053
       H     1.39395   17.64578  -15.19728
       O     0.43171   17.69974  -14.86710
      H1     0.40161   18.16713  -14.09234
       H    -5.56390   15.93226  -11.99328
       O    -6.28686   16.47415  -12.41471
      H1    -5.80615   16.80138  -13.20798
       H    -6.86824   18.42632  -16.20046
       O    -7.12063   18.21346  -15.27232
      H1    -7.98041   18.67968  -15.13083
       H     0.09148   12.20163  -18.98380
       O     0.00230   13.14777  -18.74797
      H1    -0.81608   13.26097  -18.30429
       H    -8.01293   16.57952  -15.80139
       O    -8.52184   15.78216  -15.66679
      H1    -7.94722   15.18878  -15.03803
       H     1.66975   12.02881  -15.76501
       O     2.20654   11.85624  -14.94098
      H1     2.19373   10.86978  -14.92025
       H     3.06134   17.27416  -19.06820
       O     3.96914   17.23018  -18.81725
      H1     4.29504   18.12233  -19.11722
       H    -1.43569   12.95176  -15.75017
       O    -1.96588   13.08062  -16.56988
      H1    -2.61771   13.72722  -16.31639
       H    -1.54036   18.63296  -12.87746
       O    -0.80165   19.04628  -12.32358
      H1    -0.36855   19.66169  -12.92870
       H    -6.30141   13.55214  -13.55850
       O    -6.25607   14.40424  -14.01945
      H1    -6.50288   15.12519  -13.43157
       H     0.92962   18.03990  -18.63722
       O     1.19422   18.87145  -19.05322
      H1     1.07427   19.52401  -18.40380
       H     0.20994   12.39031  -14.39335
       O    -0.75210   12.51482  -14.29667
      H1    -1.01728   11.60342  -14.31642
       H    -3.06542   14.83851  -11.92821
       O    -3.91259   15.23479  -11.73513
      H1    -3.79473   15.43228  -10.76991
       H    -5.71160   14.99307  -19.88106
       O    -5.33723   14.17472  -19.55584
      H1    -6.07512   13.87484  -18.97107

