81
frame 4 | Written by MDAnalysis XYZWriter (release 2.4.3)
       H    18.71716    3.67064   -6.17345
       O    19.27833    3.38347   -5.48398
      H1    19.58665    2.49423   -5.69223
       H    14.29634   -2.44115   -2.98799
       O    14.08123   -3.03037   -2.21927
      H1    13.94479   -3.93402   -2.51395
       H    12.09552   -0.05201  -10.68106
       O    11.74368   -0.29554   -9.80260
      H1    10.85517   -0.71143   -9.94745
       H    12.50290    0.61935   -6.80336
       O    12.98614   -0.15917   -7.25425
      H1    12.53282   -0.42839   -8.09642
       H    14.76832    2.79222   -6.24342
       O    14.71076    2.98137   -5.28003
      H1    14.69565    3.98787   -5.30239
       H     9.68916    1.89316   -7.14200
       O     8.77975    1.53137   -7.37710
      H1     8.67435    1.79513   -8.24136
       H    14.80611   -2.19130  -11.93381
       O    14.40783   -2.14980  -11.06843
      H1    13.41681   -2.36088  -11.27788
       H    16.83377   -5.54476   -7.14458
       O    15.96340   -5.68831   -6.68851
      H1    15.46642   -4.91775   -7.08210
       H    18.03574   -2.53453  -11.40859
       O    17.97092   -3.42396  -10.99089
      H1    17.15796   -3.38254  -10.48653
       H    18.21722    2.99728  -11.03576
       O    17.92051    3.64330  -10.41057
      H1    17.16384    4.10445  -10.75968
       H    16.78819   -1.40943   -9.07792
       O    16.34064   -0.85589   -9.70999
      H1    15.55961   -1.35349  -10.00050
       H    13.16933    2.53027   -4.23418
       O    12.29670    2.12724   -4.08299
      H1    12.30447    1.84940   -3.15840
       H    17.03905   -2.88586   -4.24836
       O    17.73272   -2.47208   -4.75577
      H1    17.41899   -1.55158   -4.77057
       H    16.24308    3.37493   -4.24912
       O    17.03755    3.59889   -3.66219
      H1    17.82195    3.24158   -4.07705
       H    12.00584   -4.80602   -9.30166
       O    12.45963   -4.03318   -9.68703
      H1    13.26469   -3.80356   -9.10745
       H     9.24153   -0.55314   -7.67117
       O     9.33711   -1.45833   -8.01297
      H1     9.26059   -2.04230   -7.22539
       H    12.78383   -3.51277   -6.51938
       O    13.57928   -2.89178   -6.63162
      H1    13.10266   -2.07742   -6.88140
       H    11.63518    2.53937   -5.73346
       O    11.34173    2.18841   -6.63405
      H1    11.80941    2.70688   -7.32020
       H    16.41328    0.28348   -5.83219
       O    16.76649    0.14711   -4.94016
      H1    15.88179   -0.08360   -4.55111
       H    13.05002   -0.44106   -4.00180
       O    13.87647   -0.90967   -4.15714
      H1    13.55858   -1.46217   -4.84842
       H    13.86252    3.03671   -8.66612
       O    14.63234    3.22211   -8.18108
      H1    15.13104    2.35951   -8.20074
       H    16.06659    4.14395   -7.88412
       O    17.03600    4.40238   -7.78923
      H1    17.44247    4.07493   -8.61876
       H    15.87854    0.20736   -8.34030
       O    15.56810    0.80270   -7.60329
      H1    14.63555    0.47247   -7.53296
       H    18.49359    0.28650  -12.06134
       O    18.37304   -0.60220  -11.73483
      H1    17.85386   -0.52471  -10.92981
       H    12.33234    3.34136  -10.11609
       O    12.09243    2.81087   -9.35221
      H1    12.05248    1.87480   -9.67570
       H    17.26657   -2.25742   -6.51262
       O    17.34327   -2.34447   -7.52492
      H1    16.90167   -3.15119   -7.78254
       H    15.23471   -4.97441   -9.39767
       O    15.56204   -4.03956   -9.32624
      H1    15.04894   -3.58006  -10.03472

