81
frame 5 | Written by MDAnalysis XYZWriter (release 2.4.3)
       H    -3.97400   -3.64226   12.73109
       O    -3.95016   -2.74348   12.35056
      H1    -3.04769   -2.43882   12.45590
       H    -9.34836   -8.43260   16.34054
       O    -9.49584   -9.25619   15.90242
      H1    -9.54377   -9.16473   14.97539
       H    -4.48675   -5.78453   13.94183
       O    -4.65948   -5.31225   13.12064
      H1    -4.77853   -6.01170   12.46154
       H    -7.61105   -4.14737   12.55608
       O    -7.50279   -4.32844   13.50019
      H1    -6.58530   -4.57177   13.69458
       H    -2.13272   -9.36832   12.83215
       O    -1.42445   -9.79744   12.33303
      H1    -1.94365   -9.84279   11.45241
       H    -6.99617   -8.35777   14.97808
       O    -7.11207   -7.45910   14.67991
      H1    -7.58665   -7.51929   13.82074
       H    -2.60599  -11.08411   15.48512
       O    -3.55572  -11.19475   15.33208
      H1    -3.70034  -10.82282   14.45974
       H     0.21413   -3.82326   14.46182
       O    -0.75328   -3.60630   14.28703
      H1    -0.79008   -2.68814   14.15353
       H    -2.37581   -8.16789   16.55455
       O    -2.41957   -8.83218   17.22962
      H1    -1.64431   -8.63627   17.82754
       H    -4.56462   -8.01437   11.49164
       O    -5.05150   -7.36840   11.08637
      H1    -4.52706   -7.29829   10.26880
       H    -0.54712  -11.44350   17.19356
       O    -1.07571  -11.03245   16.51358
      H1    -1.49452  -10.22064   16.79521
       H    -6.44315   -8.47891   17.82045
       O    -6.50866   -8.92015   18.68956
      H1    -6.99702   -9.80416   18.62222
       H    -2.34268   -5.62594   12.48871
       O    -1.47615   -5.25302   12.25375
      H1    -1.21821   -4.76867   13.09341
       H    -1.71152   -5.62357   15.58405
       O    -1.75177   -6.52380   15.20258
      H1    -1.50900   -6.52282   14.31244
       H    -5.44300  -11.72234   12.98248
       O    -5.62140  -10.76925   12.99195
      H1    -6.00343  -10.59622   13.90587
       H    -5.08481   -1.69688   13.07042
       O    -6.03322   -1.46646   13.23693
      H1    -6.48234   -2.32133   13.21482
       H    -7.93546   -6.99820   11.39116
       O    -8.43321   -6.93455   12.28511
      H1    -8.21468   -6.10709   12.71153
       H    -6.11029  -10.93666   16.25002
       O    -6.62057  -10.28520   15.80371
      H1    -7.53926  -10.40955   16.06219
       H    -4.38396   -9.26604   13.96137
       O    -3.74246   -8.61637   13.70110
      H1    -3.79966   -7.92303   14.39030
       H    -2.00795   -3.83903   18.53045
       O    -1.66858   -4.10843   17.62843
      H1    -1.04366   -3.42519   17.41314
       H    -0.12209   -5.03667   17.69495
       O     0.66752   -5.49344   17.44892
      H1     0.39987   -5.77409   16.56309
       H    -8.52094   -4.60575   16.38648
       O    -7.91972   -5.36467   16.55001
      H1    -7.58262   -5.54218   15.65818
       H    -9.94752   -7.33370   18.42225
       O    -9.96809   -7.14325   17.49288
      H1    -9.14891   -6.64595   17.28123
       H    -6.03096   -1.38577   15.38762
       O    -5.79879   -1.11710   16.28254
      H1    -5.40619   -0.20178   16.31866
       H    -4.47745   -5.89696   18.93959
       O    -4.92210   -5.58667   18.18518
      H1    -4.84484   -4.61721   18.08855
       H    -3.58635   -2.86209   17.39191
       O    -4.43362   -2.82298   17.83766
      H1    -4.95284   -2.12086   17.37779
       H    -5.64222   -6.70888   15.35386
       O    -4.66981   -6.56427   15.58672
      H1    -4.73182   -6.27157   16.49121

