81
frame 5 | Written by MDAnalysis XYZWriter (release 2.4.3)
       H    15.92829  -10.71708  -16.15022
       O    16.92109  -10.74242  -16.21283
      H1    17.26598   -9.97497  -15.73416
       H    10.96232   -9.94353  -11.13875
       O    10.69315   -9.02001  -11.47456
      H1    10.97565   -9.00443  -12.41435
       H     9.32237  -15.03450  -17.01502
       O    10.23509  -14.78941  -16.87732
      H1    10.69566  -14.93013  -17.78188
       H    16.94219  -14.11451  -15.84447
       O    16.02321  -14.36480  -15.63168
      H1    16.14234  -15.01910  -14.91293
       H    15.11293   -6.32789  -14.56954
       O    14.48578   -6.40744  -15.28450
      H1    13.80309   -7.02331  -14.95951
       H     9.73247  -13.31181  -17.66920
       O     9.41603  -12.60125  -18.26871
      H1     8.48271  -12.70711  -18.35262
       H    13.95068  -16.78746  -14.85092
       O    14.73277  -16.95201  -14.35358
      H1    14.55999  -17.87548  -14.01532
       H    17.86666  -11.56144  -14.80880
       O    18.44010  -12.03820  -14.15250
      H1    18.74610  -12.84727  -14.56306
       H     8.16898  -10.66050  -13.64847
       O     8.77497  -11.07329  -14.29374
      H1     8.22658  -10.95990  -15.08507
       H    12.68732  -11.51228   -9.86189
       O    12.99851  -11.14830   -9.08226
      H1    13.96679  -11.21888   -9.05158
       H    14.10316  -13.11137  -12.05434
       O    14.53188  -12.94476  -11.23978
      H1    15.47693  -12.93007  -11.41888
       H    11.69495   -9.21898  -18.59109
       O    12.50155   -9.66128  -18.37536
      H1    13.15223   -9.30117  -19.04007
       H    14.97553  -13.19625  -18.71567
       O    15.58384  -13.91088  -18.99100
      H1    15.34213  -14.66544  -18.44575
       H    12.30861  -13.02197  -17.50337
       O    13.08451  -12.43473  -17.74724
      H1    12.65644  -11.55248  -17.94666
       H    11.96135  -14.12162  -19.58762
       O    11.88845  -14.85035  -18.96105
      H1    12.68718  -14.73127  -18.40992
       H    10.33021  -12.20660   -9.97988
       O    10.51655  -11.87047  -10.88615
      H1     9.96787  -12.45869  -11.45772
       H    14.58994   -9.66515  -13.89287
       O    14.41570  -10.04382  -13.01513
      H1    13.89700  -10.86679  -13.14345
       H    12.92881  -12.06501  -14.71619
       O    13.52102  -12.72966  -14.27613
      H1    14.26168  -12.84851  -14.89113
       H    12.93955   -7.22159  -13.21216
       O    12.61733   -8.03922  -13.67500
      H1    13.10859   -8.72358  -13.22751
       H    10.91584  -15.92549  -14.12960
       O    10.66071  -16.57520  -14.78931
      H1    10.56415  -15.95115  -15.47670
       H     9.63675   -8.92108  -14.60460
       O     9.38940   -8.18477  -15.23463
      H1     8.47968   -7.98958  -15.08552
       H    13.54264   -9.86505  -15.60104
       O    14.43815   -9.74357  -15.74389
      H1    14.43561   -8.91365  -16.26068
       H    12.01834  -14.79126  -12.23917
       O    12.24642  -14.98571  -13.15410
      H1    12.49416  -14.13092  -13.57750
       H     8.70202  -14.03796  -12.92065
       O     8.85480  -13.59292  -12.09227
      H1     9.17815  -14.27828  -11.45518
       H    10.83153  -11.23004  -14.90977
       O    11.70030  -11.12046  -15.28084
      H1    11.64248  -11.20757  -16.19610
       H    14.72185  -15.55563  -16.63043
       O    14.41589  -15.94815  -17.43933
      H1    13.91366  -16.76022  -17.30616
       H    17.03966  -10.83609  -11.40844
       O    16.63482   -9.94675  -11.34917
      H1    15.78506  -10.02463  -11.81787

