81
frame 4 | Written by MDAnalysis XYZWriter (release 2.4.3)
       H   -15.97800  -12.06378   -0.66182
       O   -16.57190  -12.04443   -1.41291
      H1   -16.95362  -12.91809   -1.43645
       H   -15.54395   -7.35311   -1.98031
       O   -14.94501   -7.21454   -1.23760
      H1   -14.16810   -6.84943   -1.66307
       H   -15.79734   -8.99307    2.41474
       O   -15.26361   -8.61434    1.71424
      H1   -15.72799   -8.37846    0.95691
       H   -17.71309  -11.89999    1.58401
       O   -18.38035  -11.25476    1.31213
      H1   -18.30388  -10.47342    1.93780
       H   -15.90215   -8.44201    5.81611
       O   -15.21219   -8.93633    6.27259
      H1   -15.25733   -8.54931    7.19343
       H   -17.50729  -14.33758    2.21241
       O   -17.17624  -13.43755    2.51762
      H1   -16.98543  -13.60658    3.42511
       H   -18.78846   -8.22489   -0.85765
       O   -19.16267   -7.40451   -0.54944
      H1   -18.65478   -6.73401   -0.93531
       H   -14.42106   -4.49342    2.71635
       O   -15.15818   -4.06371    2.31909
      H1   -15.08442   -4.19694    1.36883
       H   -11.38438  -11.19865    4.69494
       O   -11.17063  -11.15281    3.71244
      H1   -10.37371  -11.72835    3.64405
       H   -15.82530  -12.84120    1.39494
       O   -15.14997  -12.59400    0.79644
      H1   -14.59738  -11.90202    1.22318
       H   -17.66590   -9.36864    4.33348
       O   -17.36568   -8.97367    3.47596
      H1   -18.17334   -8.55488    3.13015
       H   -12.90055   -6.33918    3.88422
       O   -13.24724   -5.41795    4.00253
      H1   -13.49327   -5.39921    4.92358
       H   -17.43468  -10.48439   -1.73989
       O   -17.77188   -9.65032   -2.05731
      H1   -18.72182   -9.84978   -2.26273
       H   -13.90423  -10.01433    2.13445
       O   -13.47544  -10.85023    2.26001
      H1   -12.65152  -10.80960    2.72654
       H   -13.06656   -8.46268   -2.60407
       O   -12.75147   -9.31848   -2.25245
      H1   -13.31505  -10.08640   -2.61576
       H   -11.02004   -6.19615    0.98315
       O   -10.23299   -5.92713    1.50075
      H1    -9.43092   -6.14453    0.93558
       H   -17.46075   -4.00304    3.54497
       O   -18.12921   -3.41592    3.09078
      H1   -17.70549   -3.23954    2.21906
       H   -15.11946  -10.86333   -3.94441
       O   -14.50930  -11.36467   -3.36265
      H1   -15.11460  -11.67527   -2.67077
       H   -14.39162  -12.15062    3.64487
       O   -14.68484  -12.64622    4.39085
      H1   -14.46168  -12.09208    5.17091
       H   -11.38425   -7.84613    3.31407
       O   -12.35819   -7.81180    3.15011
      H1   -12.53723   -7.90046    2.18361
       H   -13.03990  -14.37249   -0.77913
       O   -12.81822  -14.04325    0.17565
      H1   -13.61960  -13.59457    0.44381
       H   -18.04344   -5.44673    1.36783
       O   -17.61108   -6.10038    1.93789
      H1   -16.78510   -6.11012    1.50934
       H   -14.14352  -10.54661    6.41598
       O   -13.62250  -11.34308    6.57498
      H1   -12.72726  -11.16696    6.19216
       H   -16.06853   -5.81172    5.43722
       O   -16.97671   -5.96569    5.07957
      H1   -16.99136   -6.04763    4.14100
       H   -10.08127   -8.84641   -1.41055
       O   -10.61643   -9.15918   -0.67169
      H1   -11.48315   -9.30706   -1.07415
       H   -13.19635   -7.58120    0.06424
       O   -12.30710   -7.20598    0.08013
      H1   -11.78158   -7.87868   -0.31004
       H   -15.31922   -4.75040   -1.54057
       O   -15.28987   -4.05758   -0.86831
      H1   -15.52218   -3.28663   -1.44864

