81
frame 4 | Written by MDAnalysis XYZWriter (release 2.4.3)
       H     7.87670    9.26026  -12.55114
       O     8.20807   10.10641  -12.44731
      H1     8.49536   10.06651  -11.50722
       H    12.96757    9.79220  -15.55962
       O    12.67641   10.76530  -15.60874
      H1    13.52643   11.17917  -15.48470
       H     9.70002   14.35068  -12.62363
       O     9.22519   14.75617  -13.42620
      H1     8.71694   14.06127  -13.87372
       H     8.15617   17.97341  -17.90977
       O     8.02139   18.95063  -18.10112
      H1     8.76098   19.23265  -18.60772
       H     7.82585   15.90481  -13.01345
       O     7.23843   16.67327  -12.98054
      H1     7.70701   17.51052  -13.15194
       H     5.29422   15.85367  -16.04853
       O     5.66096   15.08899  -16.53891
      H1     5.02014   14.94872  -17.27378
       H     9.45871   19.89784  -15.16888
       O     9.88189   19.30097  -14.52180
      H1    10.68329   19.80657  -14.22009
       H    11.40028   12.54797  -11.52699
       O    10.77150   13.12195  -11.96396
      H1    10.54577   12.57534  -12.74546
       H    12.23671   10.63797  -11.24138
       O    12.69918   11.38255  -10.91302
      H1    12.60863   11.25731   -9.94881
       H     9.96919   17.44697  -14.81616
       O    10.32230   16.61772  -15.12985
      H1     9.80293   15.91291  -14.63985
       H     9.34751   14.83876   -9.03129
       O     8.91426   15.68291   -8.79188
      H1     9.57679   16.31569   -9.11648
       H     5.93841   16.03603   -8.86538
       O     6.35525   16.23007   -9.73906
      H1     7.30182   16.00882   -9.70437
       H     7.87569   12.59187  -15.64166
       O     7.86963   13.56112  -15.58459
      H1     7.05725   13.94256  -16.02338
       H     5.21393   17.08733  -12.71780
       O     4.28034   17.23721  -12.73163
      H1     3.96721   17.15381  -11.79894
       H     8.91336   16.32152  -16.56581
       O     8.30537   16.18851  -17.37082
      H1     7.37328   16.00378  -17.05842
       H     6.25726   18.09076  -10.88565
       O     6.13771   19.03679  -11.07908
      H1     5.43276   19.03624  -11.75238
       H     5.78754   13.59082  -18.77690
       O     6.34627   12.99343  -19.26371
      H1     7.22105   13.00307  -18.84239
       H     9.12393   13.90986  -18.87218
       O     9.01882   13.25119  -18.17728
      H1     8.70712   13.65360  -17.38119
       H     5.95863   14.85938  -10.57019
       O     5.46108   14.12880  -11.03735
      H1     4.53061   14.28146  -10.94102
       H    13.85590   17.28500  -14.23241
       O    13.07373   16.84246  -13.87867
      H1    12.42913   16.55621  -14.56424
       H    11.18788   10.85262  -14.49576
       O    10.33021   11.20043  -14.04472
      H1    10.00782   10.50466  -13.45283
       H     6.54926   11.41370  -12.55110
       O     5.61495   11.61582  -12.46547
      H1     5.60565   12.57344  -12.22444
       H     6.20275   10.90773  -15.49870
       O     5.25779   10.76223  -15.26588
      H1     5.14366   10.78292  -14.35543
       H     5.66350   12.90669   -9.85140
       O     6.10955   12.60635   -9.01575
      H1     5.77968   11.76681   -8.76692
       H    12.21176   14.20722  -12.10830
       O    13.01177   14.79816  -12.08388
      H1    12.92512   15.55628  -12.71661
       H    10.82933   12.49109  -18.09707
       O    11.72838   12.04878  -18.14278
      H1    12.03153   11.97741  -17.23440
       H     8.88288   10.85113  -15.13957
       O     8.12892   10.92472  -15.74415
      H1     8.32645   10.27713  -16.44297

