81
frame 5 | Written by MDAnalysis XYZWriter (release 2.4.3)
       H     1.79440  -12.11585   -6.29309
       O     1.53656  -12.81011   -6.91335
      H1     0.75223  -13.22324   -6.52878
       H     8.05995   -9.74020   -9.76126
       O     8.45610   -9.68572   -8.86949
      H1     8.24877   -8.77418   -8.80766
       H     2.78459  -10.95036   -4.47822
       O     1.87237  -10.93669   -4.66200
      H1     1.36540  -11.39065   -3.97168
       H     6.76700  -13.75246  -11.80329
       O     5.95361  -13.61429  -12.32015
      H1     5.70659  -12.66873  -12.20522
       H     6.87825  -14.10201   -2.08738
       O     6.70538  -14.28367   -3.03814
      H1     7.53516  -14.09615   -3.51492
       H     5.53675  -12.96913   -3.38004
       O     4.70045  -12.56136   -3.43656
      H1     4.00073  -13.19492   -3.56506
       H     3.87799  -10.17567   -8.89404
       O     3.48158   -9.37552   -8.51638
      H1     3.89010   -8.55297   -8.89005
       H     6.62230  -16.85332   -9.02689
       O     6.55697  -16.05186   -9.54196
      H1     6.04384  -16.28952  -10.34131
       H     5.82505  -16.54930   -5.75644
       O     5.34380  -17.35377   -5.58640
      H1     4.46712  -17.07974   -5.67992
       H     5.60918  -12.38047   -7.21407
       O     6.52799  -12.68092   -7.25622
      H1     7.11229  -11.93739   -7.07150
       H    11.65869  -12.28214   -8.33241
       O    10.79068  -12.73042   -8.34089
      H1    11.00196  -13.61945   -8.65183
       H     6.58957  -14.34173   -6.49164
       O     6.97818  -15.22306   -6.35677
      H1     7.36827  -15.48581   -7.18192
       H    12.15273  -11.28958   -4.14253
       O    11.63817  -10.51139   -4.17888
      H1    11.10486  -10.70029   -4.94758
       H     5.45338   -9.25380   -4.39245
       O     5.23055  -10.08714   -4.84458
      H1     5.18051  -10.82350   -4.24511
       H     2.55844  -12.29844   -8.45300
       O     3.26520  -12.05299   -9.07186
      H1     2.92757  -11.93579   -9.97516
       H     9.53621  -17.14323   -6.17425
       O    10.13900  -16.46062   -5.87572
      H1     9.58625  -15.66841   -5.70461
       H     9.06024  -11.01407   -6.17663
       O     9.82103  -11.57736   -6.04748
      H1     9.78487  -12.10827   -6.90462
       H    10.74380  -15.69250  -10.23873
       O     9.82515  -15.41824  -10.12476
      H1     9.39912  -16.21452   -9.75746
       H     8.78848   -7.20792   -8.18833
       O     7.80931   -6.97036   -8.05275
      H1     7.54998   -6.47114   -8.82640
       H    10.33021  -12.20660   -9.97988
       O    10.51655  -11.87047  -10.88615
      H1     9.96787  -12.45869  -11.45772
       H     6.58405  -10.27315   -5.74807
       O     7.46635  -10.27680   -6.21859
      H1     7.49282   -9.61471   -6.96703
       H     3.67852  -13.75668   -8.74892
       O     3.95633  -14.66525   -8.53732
      H1     4.60927  -14.94670   -9.18733
       H     8.70202  -14.03796  -12.92065
       O     8.85480  -13.59292  -12.09227
      H1     9.17815  -14.27828  -11.45518
       H     3.20159  -15.46550   -7.16429
       O     2.85834  -16.03967   -6.46056
      H1     2.76292  -15.43554   -5.66288
       H    10.67835   -7.47971   -8.30439
       O    10.21029   -8.08057   -7.65445
      H1     9.91244   -8.91025   -8.09653
       H     8.99442   -9.71708  -11.52165
       O     8.15230   -9.97961  -11.82103
      H1     8.35648  -10.87283  -11.96228
       H     8.15286  -14.41059   -5.39879
       O     8.92575  -14.02649   -4.89644
      H1     9.24215  -13.16434   -5.31062

