81
frame 6 | Written by MDAnalysis XYZWriter (release 2.4.3)
       H    14.41690  -12.84245    3.62497
       O    13.66480  -12.74369    3.06553
      H1    13.00526  -13.43856    3.30069
       H    16.97648  -15.15542    0.55106
       O    17.38741  -14.33869    0.27570
      H1    17.23559  -14.24369   -0.68724
       H     9.70681  -12.70705   -0.31161
       O     9.02716  -12.57158   -1.02985
      H1     8.62776  -11.69754   -0.93331
       H    11.37096  -14.13836    2.52609
       O    11.61614  -14.37131    3.44452
      H1    11.48438  -15.30452    3.49113
       H    13.77704   -9.83299    1.06775
       O    13.33530   -9.40858    0.34090
      H1    12.62318  -10.11650    0.08178
       H    17.03255  -10.74085   -0.23485
       O    17.39291  -10.35725    0.60481
      H1    16.75380  -10.74909    1.17025
       H    14.68752  -12.65352    1.50073
       O    15.07321  -12.93223    0.67752
      H1    15.95969  -13.31908    0.76408
       H     8.76134  -13.47446    7.39471
       O     8.21962  -14.04055    6.82033
      H1     8.45123  -13.80214    5.89141
       H    15.67794  -12.08149    5.29435
       O    15.94859  -12.11914    4.36934
      H1    16.85597  -11.85122    4.13765
       H    12.76995   -8.72154    6.31703
       O    13.38089   -9.56414    6.35082
      H1    14.25812   -9.19078    6.26258
       H    14.96546  -10.70312    3.36819
       O    15.03125  -10.21273    2.56157
      H1    15.29184   -9.33673    2.90807
       H     8.98104  -12.91936    3.98314
       O     8.32902  -13.61983    3.99328
      H1     8.04065  -13.65323    3.04473
       H    12.62101  -11.26549    3.43807
       O    12.20202  -10.43619    3.79327
      H1    12.75441  -10.19412    4.54806
       H    13.67644  -13.68174   -0.18435
       O    12.82069  -13.83193   -0.59086
      H1    12.45762  -14.56998   -0.11148
       H     9.45603  -10.71912    2.83607
       O     9.86458  -11.57421    3.09485
      H1    10.61412  -11.20614    3.57754
       H    15.25611  -13.03881    8.38695
       O    15.61319  -12.80983    7.49463
      H1    16.52123  -13.16768    7.46180
       H    12.59612  -14.63024    9.31362
       O    12.39145  -14.91983    8.40650
      H1    12.80471  -14.31157    7.75309
       H    15.99329  -15.83339    4.39476
       O    15.70493  -15.52097    3.50481
      H1    15.97880  -14.53469    3.52530
       H    11.72645  -16.92437   -0.62522
       O    11.70741  -16.28159    0.14198
      H1    10.72349  -16.15048    0.34643
       H    14.71667  -18.19368    4.68342
       O    14.59491  -18.87559    5.38318
      H1    14.20932  -18.38438    6.14162
       H    17.17427  -17.16632    1.27311
       O    16.23258  -16.79133    1.31801
      H1    16.13035  -16.37570    2.16167
       H    13.00938   -7.76461    2.23405
       O    12.23247   -7.65762    2.81429
      H1    12.10914   -8.62039    2.98725
       H    13.54480  -17.90272    2.96163
       O    14.32590  -18.30764    2.72889
      H1    14.85038  -17.73559    2.12075
       H    11.43653  -16.81931    2.04316
       O    11.30956  -17.22028    2.97235
      H1    10.39484  -17.04018    3.12924
       H    10.45618  -12.25662    1.69883
       O    10.78495  -12.80653    0.95343
      H1    11.70258  -12.71270    0.82592
       H     8.81437  -17.23041    4.31958
       O     8.76865  -16.79120    3.45862
      H1     8.65828  -15.91083    3.69922
       H    11.22098  -12.23156    7.93289
       O    12.03144  -11.66458    7.97624
      H1    12.22953  -11.33430    7.10890

