81
frame 5 | Written by MDAnalysis XYZWriter (release 2.4.3)
       H   -15.59050   12.22934    2.50012
       O   -16.30033   12.63045    2.96547
      H1   -16.53094   13.40279    2.37749
       H   -17.56461   11.75105    1.41614
       O   -18.13266   11.51827    0.65253
      H1   -17.70506   11.96775   -0.09449
       H   -16.51632    6.32000    9.25756
       O   -16.62270    6.66544   10.14451
      H1   -17.60337    6.63127   10.38903
       H   -16.04002   13.53170   11.64581
       O   -15.95402   12.61529   11.35846
      H1   -16.19391   12.64215   10.44383
       H   -18.93403   11.09601    6.30202
       O   -19.34413   11.15127    7.19824
      H1   -19.15036   11.99227    7.61274
       H   -13.82210   10.33023    7.15487
       O   -13.26253   10.11956    7.94643
      H1   -13.85722    9.67363    8.59963
       H   -19.96252    5.61917    2.28657
       O   -19.04898    5.81239    2.44156
      H1   -18.56066    5.74322    1.58519
       H   -15.50280    8.28155   10.11985
       O   -14.70669    8.81483    9.96084
      H1   -14.63401    9.42259   10.73165
       H   -17.12951    9.63415    8.90974
       O   -17.62581    9.31418    8.15547
      H1   -17.92853   10.13924    7.75520
       H   -17.61510   16.52534    9.86335
       O   -18.32485   17.16636   10.03812
      H1   -18.91182   16.93425    9.32763
       H   -15.65296   16.34392    6.34077
       O   -16.38588   16.26161    5.73109
      H1   -16.10401   16.40619    4.79341
       H   -16.44584   14.70085    0.57902
       O   -16.78731   14.78879    1.45657
      H1   -17.72338   14.64391    1.26923
       H   -13.54154   15.71812    7.55010
       O   -14.25154   16.30710    7.75023
      H1   -14.88042   15.92038    8.35606
       H   -18.60299    7.07747    3.84449
       O   -18.73469    7.42732    4.75621
      H1   -17.83119    7.69605    4.99385
       H   -17.80705   11.45223    4.16146
       O   -18.40246   10.89313    4.67677
      H1   -18.77098   10.18026    4.15175
       H   -19.03289   13.81892    9.20306
       O   -18.84320   13.60996    8.25266
      H1   -19.18307   14.27926    7.68678
       H   -19.93180    6.22211   11.09564
       O   -19.23795    6.87488   11.13571
      H1   -19.36414    7.29873   12.07110
       H   -17.05923    7.30527    7.56626
       O   -17.07594    6.40924    7.39841
      H1   -18.04426    6.33048    7.32822
       H   -16.27827   13.67275    5.79307
       O   -15.42151   13.48407    6.19975
      H1   -15.28527   12.56502    6.02908
       H   -15.06731    8.01853    5.05528
       O   -15.67380    8.55383    4.48624
      H1   -15.54556    8.05516    3.66095
       H   -15.17745   10.19772    5.21412
       O   -14.52778   10.83343    5.52041
      H1   -13.95502   11.04741    4.75999
       H   -16.27986   14.58725    9.08835
       O   -16.27502   15.49575    9.34717
      H1   -15.94379   15.63497   10.26095
       H   -12.44838   14.42773    4.84076
       O   -12.78356   15.28278    5.09614
      H1   -13.65524   14.95658    5.47177
       H   -18.29440   15.81746    6.06961
       O   -19.20151   15.52692    6.09114
      H1   -19.58102   15.94868    6.85662
       H   -19.55799   13.19368   11.19934
       O   -19.56023   13.97994   10.65400
      H1   -18.99557   14.61254   11.16043
       H   -13.03918   12.46485    8.34026
       O   -13.10654   13.29429    8.90709
      H1   -12.34836   13.85303    8.60071
       H   -17.26655   13.27925    8.49698
       O   -16.39802   12.87757    8.61154
      H1   -15.97451   13.17714    7.74728

