81
frame 5 | Written by MDAnalysis XYZWriter (release 2.4.3)
       H   -17.38038   11.60585   -9.86283
       O   -17.01373   10.94073   -9.27734
      H1   -17.59121   10.96676   -8.47181
       H   -10.21820   10.02004  -11.74074
       O    -9.53155    9.58925  -12.27144
      H1    -9.89979    8.70889  -12.40012
       H   -12.69387   14.10172  -10.60878
       O   -13.25759   13.53707  -10.09070
      H1   -13.76600   13.02507  -10.74392
       H   -14.50024   12.31826  -12.72364
       O   -14.85555   12.09355  -11.88425
      H1   -15.42004   12.81431  -11.66958
       H   -15.38039   13.97376  -14.02217
       O   -16.33104   13.84129  -13.81083
      H1   -16.65674   14.71931  -13.92151
       H   -15.67100    6.37508  -17.44057
       O   -15.64911    5.37605  -17.31658
      H1   -14.80932    4.98985  -17.66778
       H   -12.89404    7.74495  -16.55191
       O   -12.98646    8.05973  -17.44124
      H1   -13.22139    8.96697  -17.31504
       H   -13.93605    9.02962   -9.15122
       O   -13.34986    8.87200   -9.88392
      H1   -12.68535    9.62006   -9.89368
       H   -10.92037   11.05722   -9.57199
       O   -11.71468   10.91329  -10.07803
      H1   -12.16139   11.71576   -9.88290
       H   -10.73565    6.73995  -12.04843
       O   -10.42919    7.01103  -12.93574
      H1    -9.77668    6.32901  -13.15541
       H   -15.85344   10.62182  -18.69725
       O   -16.67844   10.42273  -18.28219
      H1   -16.41310    9.64830  -17.70349
       H   -12.61842    5.16783  -10.59727
       O   -12.61692    4.31829  -11.13850
      H1   -13.32415    4.43511  -11.77283
       H   -17.48620   12.08358  -13.39739
       O   -17.80025   11.24488  -13.71410
      H1   -17.77539   10.66914  -12.93799
       H   -16.94787    6.32722  -12.78649
       O   -16.24900    6.18662  -12.13461
      H1   -15.47366    6.72274  -12.29327
       H   -12.68114   13.41228  -14.17372
       O   -13.55365   12.95569  -14.25244
      H1   -13.69662   12.76793  -15.20587
       H   -10.05217   10.07557  -14.23715
       O   -10.42130    9.66048  -15.03043
      H1   -11.18373    9.15393  -14.73035
       H   -12.02252    7.44488  -10.16051
       O   -11.36067    6.75238  -10.43223
      H1   -11.08784    6.36338   -9.58179
       H   -17.02338    7.80845  -16.50531
       O   -16.17479    8.23541  -16.70692
      H1   -16.05084    8.72599  -15.83388
       H   -16.87070    6.27223  -10.30374
       O   -17.15804    6.12588   -9.37776
      H1   -18.08723    6.17311   -9.35251
       H   -15.13756   10.53503  -14.97504
       O   -15.67062    9.82053  -14.49539
      H1   -16.40915   10.33338  -14.14496
       H   -15.35098    4.75748  -12.38626
       O   -14.85788    3.95464  -12.68568
      H1   -15.01284    3.32470  -12.00642
       H   -13.84581   11.43114  -16.79963
       O   -13.45126   10.63943  -16.39603
      H1   -12.62935   10.93120  -15.97406
       H   -17.08571    9.72139  -11.04187
       O   -17.85393    9.52944  -11.60553
      H1   -18.65456    9.65074  -10.99153
       H   -13.13952    7.88223  -13.79714
       O   -12.45659    7.59560  -14.44392
      H1   -11.63789    7.37862  -13.92296
       H   -15.76508    4.38309  -15.88971
       O   -16.17212    3.94090  -15.13446
      H1   -15.67147    4.18911  -14.35993
       H   -14.06250    8.82914  -11.82499
       O   -14.50964    8.45926  -12.56926
      H1   -14.90157    9.19116  -13.08804
       H   -19.01942    7.15569  -13.43846
       O   -18.18467    7.57853  -13.61333
      H1   -18.02866    8.22762  -12.90842

