81
frame 6 | Written by MDAnalysis XYZWriter (release 2.4.3)
       H     9.39789   -0.94573   16.01508
       O     9.34180   -1.82954   16.49017
      H1     8.99917   -2.50470   15.95203
       H    15.85518   -2.17605   17.74488
       O    16.01292   -1.18976   17.65895
      H1    15.14191   -0.87372   17.95110
       H    17.70077    0.06453   15.31393
       O    17.07767   -0.66122   15.32735
      H1    16.98839   -0.96492   16.20789
       H    13.24747  -11.22125   15.73549
       O    14.10859  -10.94851   16.10759
      H1    14.05599  -11.22906   17.01115
       H    11.09586   -6.18925   14.51417
       O    11.36504   -6.96690   14.01577
      H1    10.50977   -7.38400   13.80002
       H    11.08826   -9.52249   16.48093
       O    10.69324   -9.25930   17.31811
      H1    10.74814  -10.04950   17.84940
       H    12.40507   -8.49858   17.68919
       O    13.32383   -8.14412   17.61806
      H1    13.39886   -7.61430   18.46868
       H    10.24025  -12.11773   19.30463
       O    10.84473  -11.77535   18.60583
      H1    10.93281  -12.62180   18.16960
       H    14.59082   -7.87719   14.51150
       O    13.97059   -8.07714   13.82283
      H1    13.18909   -7.46283   13.80219
       H    13.58678   -5.48808   20.11191
       O    13.92528   -6.08294   19.48800
      H1    14.58988   -5.57796   18.99045
       H    15.81938  -12.03591   18.72916
       O    16.40577  -12.79112   18.57247
      H1    16.99342  -12.37344   17.96056
       H    19.76496   -3.51964   18.91830
       O    19.70681   -2.69215   19.37003
      H1    18.83705   -2.31806   19.22873
       H    16.10515   -4.72519   17.74241
       O    15.95052   -4.23382   18.54700
      H1    16.59704   -4.49240   19.26069
       H     9.93687   -5.20354   16.75200
       O    10.16044   -4.81021   15.90872
      H1    10.99851   -4.39235   15.91648
       H    15.42896   -9.47500   19.62996
       O    15.41442  -10.25326   19.02585
      H1    16.33504  -10.37841   18.90662
       H    15.56213   -9.26718   16.33796
       O    15.56852   -8.35107   16.17820
      H1    14.81566   -8.13067   16.73138
       H     6.23753   -3.08097   18.38204
       O     7.09846   -3.58905   18.33965
      H1     7.91677   -3.14387   18.51981
       H    11.07545   -1.72084   16.44957
       O    12.06987   -1.63887   16.37827
      H1    12.25567   -0.79867   16.00919
       H    20.31833   -8.99746   16.47553
       O    19.57589   -8.70050   17.09044
      H1    18.97612   -9.48427   17.07113
       H     8.71167   -5.62740   20.24045
       O     9.35485   -6.20251   19.70092
      H1     8.80516   -6.38532   18.92071
       H    12.81402   -3.13381   16.17019
       O    13.09546   -4.04699   15.92750
      H1    13.49858   -4.50012   16.72761
       H     7.65800   -8.59203   16.83161
       O     8.06426   -9.41143   16.60985
      H1     8.99966   -9.37909   16.91951
       H    16.35748   -6.69228   16.47656
       O    16.67460   -5.77454   16.54807
      H1    17.12166   -5.60445   15.71480
       H    13.56095   -1.57009   19.48240
       O    13.41785   -0.98150   18.76322
      H1    12.84755   -1.39446   18.11195
       H    13.73022   -3.56466   14.08994
       O    13.98715   -3.46252   13.16904
      H1    14.87945   -3.10363   13.16175
       H     7.42562   -6.45115   16.69897
       O     7.24363   -6.42925   17.64035
      H1     7.13306   -5.51706   17.91585
       H    18.73505   -7.39342   18.09496
       O    18.20595   -6.78076   18.66448
      H1    17.43993   -6.47461   18.10874

