81
frame 0 | Written by MDAnalysis XYZWriter (release 2.4.3)
       H     1.75525   10.14218   -1.23084
       O     2.00163    9.39613   -1.76212
      H1     2.54384    8.78137   -1.18330
       H     0.39929    7.66441   -3.75630
       O     0.49535    7.37677   -4.66973
      H1     0.09844    7.97448   -5.34227
       H     4.02036    5.98482    2.16039
       O     4.46010    5.22706    1.78127
      H1     3.79997    4.79036    1.36204
       H     7.13919    9.58215   -4.64097
       O     6.91250   10.20297   -3.93355
      H1     6.04268   10.59515   -4.22263
       H     3.80373    7.65959   -5.57332
       O     3.23440    8.48061   -5.80091
      H1     2.45258    8.15942   -6.25435
       H     8.22900   10.52280   -1.23848
       O     7.25136   10.70109   -1.15592
      H1     6.92202   10.45207   -2.00130
       H     1.19205    6.93607    1.36303
       O     1.90443    6.71333    1.99723
      H1     2.04064    7.52586    2.44704
       H     5.81976    4.09728    1.33448
       O     6.46016    3.50980    0.94655
      H1     6.76879    3.88896    0.09749
       H    -0.49977    5.96280   -2.23598
       O    -0.33656    4.98821   -2.08448
      H1    -0.84382    4.82150   -1.23038
       H     4.28764    6.36725   -4.02789
       O     4.10038    6.01321   -4.90994
      H1     3.17758    5.69974   -4.91149
       H     1.37027    4.49834   -6.38009
       O     1.49186    4.77604   -5.44912
      H1     0.96386    5.60101   -5.38317
       H     1.00601    3.90030   -1.93575
       O     1.79165    3.34666   -2.03154
      H1     2.15390    3.28933   -1.14283
       H     3.23604    7.32985    0.59718
       O     3.52621    7.91986   -0.08696
      H1     4.02170    7.44226   -0.75294
       H     5.04257    8.30929    0.35407
       O     6.03248    8.25035    0.51004
      H1     6.58294    9.03538    0.24119
       H     7.25609    6.83147    1.43069
       O     8.09114    6.74665    1.85568
      H1     8.11214    5.81835    2.10359
       H     5.62140    5.07163   -5.54459
       O     6.30411    4.74571   -6.12538
      H1     6.89963    4.17833   -5.62336
       H     7.85290    8.00581   -6.54069
       O     8.08513    8.20421   -5.62322
      H1     8.60854    8.99981   -5.79018
       H     5.42909    7.06687   -7.33814
       O     6.12264    7.42055   -7.86375
      H1     5.86203    8.34544   -7.79265
       H     6.96254    3.28759   -2.86326
       O     7.16604    3.36123   -1.95148
      H1     7.88215    2.73528   -1.82960
       H     5.40436    7.42969   -2.54158
       O     4.44400    7.27456   -2.62590
      H1     3.90433    8.10024   -2.73496
       H     3.96875    9.74035   -4.73775
       O     4.09167   10.33467   -3.95560
      H1     3.72460   11.10620   -4.34055
       H     3.33586    2.94177   -5.06412
       O     3.84145    2.84073   -4.24924
      H1     3.35625    3.00688   -3.37806
       H     7.57375    6.84763   -1.71040
       O     7.15052    7.46635   -2.33965
      H1     7.58506    7.28417   -3.18635
       H     0.42904   12.16392   -3.60358
       O     0.37581   11.33718   -4.06709
      H1     1.05979   10.74410   -3.68753
       H     5.46881    7.62834    3.89270
       O     4.91729    7.82524    3.12128
      H1     5.49651    7.99401    2.37546
       H     0.60406    8.45976   -1.82003
       O    -0.21530    7.99397   -2.05386
      H1    -0.88254    8.63468   -2.28868
       H    10.03999    7.01620   -0.92385
       O     9.33183    6.40577   -0.56051
      H1     8.97246    6.68909    0.33328

