81
frame 7 | Written by MDAnalysis XYZWriter (release 2.4.3)
       H    -7.64159   -8.36252  -17.64333
       O    -7.91671   -9.29721  -17.66568
      H1    -7.86862   -9.64629  -18.52516
       H   -14.16480  -13.59362  -17.02864
       O   -13.96654  -13.14894  -17.88487
      H1   -14.63557  -12.46797  -17.84254
       H   -10.67031  -16.08237  -16.90929
       O   -11.41124  -15.79417  -16.31837
      H1   -11.14512  -14.95099  -15.89752
       H    -9.36520  -12.97083  -18.35869
       O    -9.92172  -12.98282  -19.11184
      H1    -9.28522  -12.66205  -19.80727
       H    -9.64482   -4.86603  -16.54749
       O    -9.93049   -5.74913  -16.78262
      H1   -10.32435   -5.59182  -17.63028
       H   -10.88179  -10.73597  -13.32572
       O   -11.50299  -10.95496  -14.03362
      H1   -11.11487  -11.72788  -14.40751
       H   -14.72096  -16.49503  -19.02026
       O   -14.09694  -17.22684  -18.71901
      H1   -13.97635  -17.83114  -19.45675
       H   -12.65584   -9.67347  -13.74168
       O   -13.24955   -8.93742  -13.43252
      H1   -14.13313   -9.18883  -13.73078
       H   -17.79255  -13.54228  -17.13685
       O   -18.09388  -14.48585  -17.22711
      H1   -18.22195  -14.78461  -16.30645
       H    -7.94184   -9.43647  -15.89182
       O    -7.92820   -9.40352  -14.89570
      H1    -8.12479   -8.49444  -14.63428
       H   -14.38330  -11.09658  -15.77908
       O   -15.16173  -11.24669  -15.19690
      H1   -15.91243  -10.83089  -15.57507
       H   -17.48382   -7.14165  -16.56225
       O   -18.18163   -7.26034  -17.23615
      H1   -17.93542   -7.97214  -17.85253
       H   -10.68242   -9.61982  -19.22884
       O   -10.35353   -8.70206  -19.45474
      H1    -9.45406   -8.62942  -18.94106
       H    -9.91038  -13.31584  -14.17155
       O   -10.18776  -13.18221  -15.07396
      H1    -9.40340  -12.97759  -15.54227
       H   -15.69990  -10.75617  -18.93091
       O   -14.97834  -10.10946  -19.18036
      H1   -14.94954   -9.36468  -18.59528
       H   -14.96571  -12.95746  -15.00948
       O   -14.83341  -13.90644  -15.14275
      H1   -14.04770  -14.04503  -14.60273
       H   -12.35747   -8.73827  -16.61147
       O   -12.36756   -7.70356  -16.58474
      H1   -11.61928   -7.47481  -17.13572
       H   -12.47267  -10.85623  -19.55820
       O   -11.71215  -10.95301  -18.99385
      H1   -11.25841  -11.78046  -19.15909
       H   -17.63980  -11.62865  -18.10275
       O   -17.07111  -11.99576  -17.40386
      H1   -17.23520  -11.49570  -16.60956
       H   -15.07988  -14.59052  -18.71102
       O   -15.85308  -15.15128  -19.02625
      H1   -16.34319  -15.23530  -18.23679
       H   -15.11411   -6.09351  -17.47290
       O   -14.99204   -7.03581  -17.41514
      H1   -14.06477   -7.24734  -17.17858
       H   -12.25164   -7.47967  -13.66809
       O   -11.64832   -6.78388  -14.00911
      H1   -11.64241   -6.98924  -14.95970
       H    -9.52937  -17.86621  -17.86363
       O    -9.65057  -17.02631  -18.25507
      H1    -8.73340  -16.67027  -18.27982
       H    -6.54184  -13.90747  -18.63456
       O    -6.22522  -12.98462  -18.75373
      H1    -5.34958  -12.98162  -18.30624
       H   -18.24299  -10.29708  -14.96245
       O   -17.54804   -9.90570  -15.56086
      H1   -18.03337   -9.31070  -16.12213
       H    -7.41355  -12.26624  -17.68418
       O    -8.19030  -12.02536  -17.14638
      H1    -8.23097  -11.09811  -17.28501
       H   -12.12647  -10.60475  -17.13993
       O   -12.70048  -10.35675  -16.34044
      H1   -12.12093  -10.49715  -15.57920

