81
frame 7 | Written by MDAnalysis XYZWriter (release 2.4.3)
       H     1.96854    3.14441    3.92355
       O     1.79074    3.70648    4.70708
      H1     2.53818    4.24743    4.80918
       H     7.39650    3.75842    3.85207
       O     7.73368    2.86008    3.86845
      H1     7.18301    2.47948    4.58589
       H    -0.27056    5.48345    4.50976
       O     0.15427    5.92347    5.29249
      H1     1.06096    5.60684    5.32535
       H     3.10470    4.92642    0.94067
       O     3.41137    3.94409    0.87730
      H1     2.67073    3.52874    0.44102
       H     8.81162    9.78786    3.84554
       O     9.56329    9.80746    3.17271
      H1     9.57489   10.72027    2.93846
       H     2.95355    6.46554    6.73454
       O     3.35191    6.14131    5.93835
      H1     4.18697    5.70198    6.23941
       H     6.31448    5.55134    5.19781
       O     5.80770    5.01205    5.86157
      H1     6.14526    5.40644    6.66866
       H     9.61400    7.78374    5.88757
       O     8.87844    7.17684    5.73092
      H1     9.29231    6.37235    5.52062
       H     1.60382    6.40898    0.95919
       O     2.54204    6.55599    0.72168
      H1     2.81729    7.22484    1.35633
       H     1.57106    9.37035    5.36951
       O     2.15034    9.45779    6.13466
      H1     2.15570   10.39132    6.34755
       H     3.69272   12.06329    7.16954
       O     2.74346   12.06589    7.35748
      H1     2.83099   11.76250    8.31641
       H     7.67888    6.71976    4.28584
       O     7.17538    6.18370    3.65706
      H1     7.87139    6.03359    2.89978
       H     7.97345    8.26093    7.34762
       O     7.40589    8.54212    8.08369
      H1     7.27600    9.49039    8.12384
       H     7.20665    6.87191    0.73277
       O     6.45594    7.39447    0.37527
      H1     6.74317    8.20719   -0.01772
       H     3.19309    8.27035    2.96994
       O     2.56286    8.64620    2.35136
      H1     2.60298    9.59669    2.43482
       H     6.89309    6.86479    8.61004
       O     6.49920    5.99269    8.41933
      H1     5.65395    6.10527    8.87677
       H     1.11757    8.36720    9.15238
       O     0.84244    8.90751    9.93901
      H1     1.04846    8.50049   10.77607
       H     6.37727   10.14852    3.49832
       O     6.56382    9.55174    4.26026
      H1     5.95140    8.85290    4.20506
       H     2.12392   12.33306    2.87336
       O     2.37780   11.49196    2.53573
      H1     2.68921   11.65705    1.64312
       H     4.96989   10.83766    5.90332
       O     5.16720   11.78706    6.18335
      H1     5.92321   11.79198    6.74423
       H     2.93494    7.44733    8.65944
       O     2.10416    7.49028    8.21030
      H1     2.29255    8.22916    7.59162
       H     0.75864    8.03729    2.69548
       O    -0.10055    7.66710    3.03266
      H1     0.14323    7.25708    3.89362
       H     7.48390   11.74989    1.96419
       O     6.59201   11.39042    2.08278
      H1     6.53427   10.62954    1.53833
       H     3.57189    5.82305    9.84899
       O     4.15936    6.56038    9.70957
      H1     4.22903    7.04032   10.53835
       H     4.94286    1.24377    7.88579
       O     4.34028    1.80422    7.30818
      H1     5.09386    1.97174    6.65921
       H     4.22487    7.12356    4.61725
       O     4.61805    7.52311    3.83809
      H1     5.37810    6.98675    3.66991
       H     8.22304    5.02339    0.85053
       O     8.62215    5.74642    1.35285
      H1     9.47183    5.41404    1.69534

