81
frame 0 | Written by MDAnalysis XYZWriter (release 2.4.3)
       H   -15.59619  -11.34806   -0.77407
       O   -15.17285  -10.75451   -1.41558
      H1   -15.84944  -10.73210   -2.12831
       H   -14.23965   -4.93799   -3.65149
       O   -15.19109   -5.00493   -3.96666
      H1   -15.19186   -5.75945   -4.60588
       H    -8.90134   -7.17954   -5.01253
       O    -8.54963   -6.75294   -4.19346
      H1    -8.59261   -5.81616   -4.17270
       H   -11.81834  -12.90876    0.26137
       O   -11.12565  -12.47985   -0.25557
      H1   -11.47285  -11.56095   -0.32633
       H   -12.53787   -9.44564   -9.20777
       O   -12.51630   -8.54244   -9.51482
      H1   -13.02108   -8.07734   -8.88639
       H    -9.29873   -8.33197   -7.66298
       O    -9.53492   -8.08612   -6.77282
      H1   -10.03832   -8.88960   -6.47799
       H   -16.42083   -7.34768   -6.09618
       O   -15.56875   -7.03425   -5.70385
      H1   -15.22932   -6.54847   -6.47268
       H   -13.49931   -5.73436   -8.56561
       O   -13.53589   -6.52051   -7.95618
      H1   -12.71216   -6.36303   -7.41940
       H   -14.46388   -9.81027   -6.74191
       O   -14.55211   -9.50106   -5.82022
      H1   -15.00711   -8.66238   -5.92474
       H   -12.14712   -8.65633   -4.60602
       O   -11.94541   -7.82190   -4.15137
      H1   -11.32414   -8.07242   -3.41521
       H   -11.59336   -4.34049   -5.40973
       O   -11.37428   -3.59499   -4.77791
      H1   -12.10389   -3.00206   -4.97473
       H    -6.78797   -7.07460   -4.26520
       O    -5.83590   -6.99209   -4.47884
      H1    -5.72779   -7.24982   -5.42210
       H    -8.64172   -8.01392   -1.28489
       O    -8.09494   -7.42228   -0.70140
      H1    -7.21507   -7.60412   -1.01240
       H    -8.88988  -12.35468   -5.51289
       O    -9.25189  -11.80184   -4.81527
      H1    -8.49381  -11.63607   -4.27129
       H   -16.01070   -7.88482   -1.51015
       O   -16.96945   -7.98218   -1.46840
      H1   -17.24356   -7.07179   -1.57448
       H   -13.37640  -10.39933   -0.75635
       O   -12.46529  -10.12164   -0.43437
      H1   -12.46001  -10.26843    0.47480
       H   -11.87962   -5.65952    0.80090
       O   -11.25198   -5.27831    1.44052
      H1   -10.55640   -5.00266    0.83790
       H    -9.64142   -9.68541   -2.85756
       O    -9.77290   -8.75439   -2.63402
      H1    -9.42167   -8.21411   -3.38824
       H    -8.36778  -11.63167   -2.19891
       O    -7.81789  -10.97238   -2.66281
      H1    -7.07901  -10.86190   -2.08273
       H   -15.62335  -11.24274   -5.19570
       O   -15.74637  -12.12910   -5.50832
      H1   -15.81651  -12.66430   -4.73247
       H   -12.12188   -5.44242   -2.01973
       O   -12.45936   -4.56368   -2.31538
      H1   -11.82076   -4.30381   -3.00224
       H   -10.80194  -12.27423   -3.85186
       O   -11.77160  -12.13140   -3.91480
      H1   -11.80203  -11.33885   -4.43620
       H   -10.53666  -10.71742   -5.65254
       O   -11.26641  -10.19747   -6.04393
      H1   -11.55494  -10.72827   -6.78626
       H   -12.87105   -7.64838   -2.41489
       O   -12.81663   -7.41596   -1.46117
      H1   -12.81100   -8.32234   -1.07749
       H   -14.13531  -12.95300   -5.49573
       O   -13.35894  -13.55517   -5.69809
      H1   -12.59400  -13.12492   -5.22527
       H   -10.85423   -5.51903   -7.54225
       O   -11.28195   -5.72866   -6.68556
      H1   -10.90607   -6.57349   -6.58447
       H   -14.42407   -6.98237    0.93703
       O   -13.84209   -6.30867    0.62733
      H1   -13.47409   -6.60168   -0.19887

