81
frame 7 | Written by MDAnalysis XYZWriter (release 2.4.3)
       H   -16.05118    6.36160    9.24010
       O   -15.87542    6.26370   10.19475
      H1   -16.73798    6.37602   10.73741
       H   -15.94910    5.09026    7.29316
       O   -15.43638    4.25701    7.28214
      H1   -14.55163    4.59894    7.45894
       H   -16.40778    2.59515    7.34402
       O   -17.27079    2.12986    7.27946
      H1   -17.95930    2.58809    7.76780
       H   -13.45439   10.02129    6.84627
       O   -12.86167    9.97203    7.60134
      H1   -12.95129    9.06156    7.87878
       H   -12.32998    7.36503   10.66658
       O   -11.70483    6.87277   10.05008
      H1   -10.87407    7.04388   10.43735
       H   -14.20653    2.88877    9.66855
       O   -13.23517    3.03938    9.79072
      H1   -12.92330    2.12372   10.06868
       H   -15.51834    7.98172   10.33192
       O   -15.21524    8.92151   10.17748
      H1   -15.80171    9.54669   10.59919
       H    -9.61633    6.14803    4.67744
       O    -9.00516    5.96751    3.86690
      H1    -8.23284    5.56579    4.25518
       H   -10.35527    4.89942    7.36800
       O   -10.32947    3.97244    7.62429
      H1    -9.42471    3.96953    8.07857
       H   -16.18661    5.47040    4.49407
       O   -16.25377    4.53112    4.30145
      H1   -16.17736    4.08499    5.17634
       H   -11.16861    9.42225    7.07191
       O   -10.31459    8.95441    6.89761
      H1   -10.33572    8.88704    5.92244
       H   -15.25414    1.05235   12.38829
       O   -15.63195    1.82857   11.94563
      H1   -15.93133    1.49239   11.02000
       H    -8.34582    2.86997    9.99572
       O    -8.82808    2.43659   10.69665
      H1    -9.62741    2.90951   10.79751
       H    -8.73721    5.46095   12.56512
       O    -9.35171    5.96008   12.00057
      H1    -9.98752    5.27879   11.68622
       H   -12.56650    0.22467   11.31522
       O   -12.24682   -0.09805   10.49305
      H1   -12.97849   -0.56176   10.05921
       H   -10.60116    7.25559    6.32193
       O   -10.64046    6.44485    5.82461
      H1   -11.56789    6.12932    5.70021
       H    -7.77317    5.20650    9.27840
       O    -7.91375    4.28300    8.95590
      H1    -7.14676    4.28038    8.40900
       H   -14.78282    5.45711   12.19467
       O   -14.80481    5.43494   13.15183
      H1   -13.96693    4.98941   13.38113
       H    -9.95534    2.56860    6.47551
       O    -9.98351    1.59382    6.31229
      H1   -10.89292    1.39114    6.37785
       H   -12.14556   -0.56054    7.06444
       O   -12.39116    0.00108    6.30567
      H1   -12.99122   -0.41705    5.61809
       H   -11.97993    4.05148   11.02314
       O   -11.17189    3.80494   11.51580
      H1   -11.52617    3.75344   12.42477
       H   -16.86386    7.84125    7.71656
       O   -16.89124    6.85560    7.51532
      H1   -17.91512    6.72651    7.49668
       H   -13.74118    4.82370    4.84628
       O   -13.20250    5.49507    5.34706
      H1   -13.08407    5.06558    6.15881
       H   -13.89495    8.72998   11.48641
       O   -13.01163    8.47429   11.70085
      H1   -13.04492    8.08813   12.59411
       H   -14.39125    6.95325    5.04626
       O   -15.20517    7.33548    4.62802
      H1   -14.91581    7.38929    3.71957
       H   -10.86272    0.29345    9.37010
       O   -10.05476    0.59865    8.93409
      H1    -9.59910    1.31507    9.46232
       H   -12.52268    5.90863    8.75945
       O   -12.98383    5.27845    8.14273
      H1   -12.64977    4.44504    8.54770

