81
frame 7 | Written by MDAnalysis XYZWriter (release 2.4.3)
       H     5.62795  -19.14222  -15.00783
       O     4.78599  -19.26275  -14.48460
      H1     4.46766  -20.07408  -14.90828
       H     8.45025  -19.09601   -4.22806
       O     7.73221  -19.67143   -4.44509
      H1     6.97139  -19.07323   -4.47877
       H     2.60508  -16.52944   -9.71590
       O     2.72687  -17.39688  -10.10653
      H1     2.46505  -17.33418  -11.11063
       H     5.68530  -13.89967  -12.62076
       O     4.69972  -13.73853  -12.57346
      H1     4.72284  -12.82636  -12.94279
       H     6.90764  -17.53674   -9.08625
       O     6.82756  -16.65499   -9.54518
      H1     6.12086  -16.79015  -10.20908
       H     5.47768  -16.59835   -6.42601
       O     4.71288  -17.17432   -6.27244
      H1     4.01323  -16.45873   -6.24991
       H     2.40260  -18.24032  -13.28959
       O     2.51167  -17.46343  -12.77278
      H1     3.11139  -16.93600  -13.30931
       H     6.73694  -14.54436   -7.03160
       O     7.11153  -15.41675   -6.88671
      H1     6.97098  -15.83896   -7.72896
       H    12.51254  -19.81305   -8.31969
       O    12.97427  -19.34060   -9.03794
      H1    12.57205  -18.46506   -9.09767
       H     8.32537  -18.99867   -7.85554
       O     9.22453  -18.72855   -7.76119
      H1     9.79920  -19.51861   -7.61956
       H    10.09102  -17.14972   -7.09379
       O    10.70940  -16.48711   -6.72540
      H1    10.23978  -15.70529   -6.53727
       H    13.04808  -18.78473  -11.02735
       O    13.44972  -18.35691  -11.81329
      H1    12.86220  -18.58722  -12.57163
       H     5.43758  -19.95378  -12.71355
       O     5.36229  -19.66604  -11.80336
      H1     5.10236  -18.75248  -11.88961
       H    12.94606  -16.09284   -9.01627
       O    12.07199  -16.56219   -9.08029
      H1    11.54876  -16.21839   -8.37154
       H     7.56576  -18.23044  -16.60397
       O     7.28231  -19.14697  -16.33933
      H1     7.71521  -19.66216  -17.07075
       H     9.16765  -15.12680  -10.95042
       O     8.54279  -14.50874  -10.57571
      H1     8.10157  -14.96052   -9.85989
       H     7.09846  -19.55492  -10.19677
       O     6.93260  -19.41423   -9.29803
      H1     5.96826  -19.43382   -9.19480
       H     4.95009  -15.84143  -15.39356
       O     4.31286  -15.62483  -14.65506
      H1     4.69130  -14.84500  -14.29326
       H     4.08776  -16.73320  -11.24705
       O     4.99497  -16.74569  -11.52526
      H1     4.92433  -16.16809  -12.29982
       H     9.74777  -18.90023   -9.42334
       O     9.99413  -18.72884  -10.39041
      H1    10.29919  -19.57003  -10.75525
       H    11.74346  -16.18775  -13.09873
       O    12.45740  -15.88720  -13.66482
      H1    12.42796  -14.94701  -13.44371
       H     7.55888  -14.65960  -13.62027
       O     7.21562  -14.14816  -12.89079
      H1     7.72510  -14.40061  -12.10555
       H     8.28149  -18.48410  -13.17390
       O     8.13070  -17.62482  -12.75871
      H1     7.51641  -17.76566  -12.04491
       H     8.44235  -14.72738   -6.46338
       O     9.31519  -14.26559   -6.06055
      H1     9.50762  -13.43227   -6.57897
       H     3.94020  -18.59719   -9.01548
       O     4.30939  -19.21027   -8.38997
      H1     4.54124  -18.64409   -7.62718
       H     8.66388  -15.73546  -15.53356
       O     7.90991  -15.61982  -14.91835
      H1     7.86748  -16.33658  -14.28474
       H    10.65307  -16.81174  -10.81376
       O    10.29529  -16.33828  -11.58332
      H1     9.65069  -16.94395  -11.94031

