81
frame 7 | Written by MDAnalysis XYZWriter (release 2.4.3)
       H    -5.27916   -2.36651  -11.54906
       O    -4.39467   -2.38612  -11.11419
      H1    -3.73701   -2.29371  -11.81765
       H   -11.08577   -0.51897  -10.75667
       O   -10.64999    0.30562  -10.70609
      H1   -10.60964    0.60394  -11.61969
       H    -4.43623   -2.60266   -7.82406
       O    -3.84031   -1.86982   -7.88658
      H1    -4.13781   -1.40307   -8.67113
       H    -7.64366   -0.77100   -8.22139
       O    -7.44769   -1.70557   -8.45491
      H1    -7.67665   -1.74735   -9.40564
       H    -6.56917    0.75653  -15.66022
       O    -6.62197    1.45307  -14.97150
      H1    -6.95858    2.18420  -15.48899
       H    -3.76554   -2.11042  -18.19776
       O    -3.30310   -2.54000  -17.41354
      H1    -3.73294   -2.05619  -16.67322
       H    -8.34483   -5.87998  -10.93407
       O    -8.38851   -6.35984  -10.06472
      H1    -8.35871   -7.32017  -10.26367
       H    -4.57651   -0.10117  -15.50957
       O    -4.79374   -1.05275  -15.49726
      H1    -5.29778   -1.27473  -14.65186
       H    -7.19440    0.52180  -11.09392
       O    -7.63144   -0.33252  -11.05248
      H1    -8.55238   -0.05157  -10.98000
       H   -11.02344    3.21820  -12.07678
       O   -10.13878    2.83257  -12.32705
      H1    -9.66947    3.54560  -12.75304
       H    -9.43813    3.02711  -10.53983
       O    -9.14378    3.02056   -9.62843
      H1    -9.23535    2.11022   -9.31433
       H    -7.29525   -2.75199  -13.27774
       O    -6.70624   -2.01767  -13.36810
      H1    -6.93448   -1.44122  -12.63020
       H   -11.45627   -3.64596  -13.25255
       O   -10.80715   -4.31689  -13.08634
      H1   -11.04616   -5.08048  -13.61515
       H    -9.75951   -2.32413  -16.26673
       O    -9.28906   -2.95596  -15.76343
      H1    -9.72264   -3.01337  -14.92553
       H    -8.11257    0.05169  -18.22237
       O    -7.44091   -0.34031  -17.59725
      H1    -6.98322   -1.07995  -17.93489
       H    -2.63831    1.16553  -13.07943
       O    -1.90152    1.19468  -13.66216
      H1    -1.55183    0.26752  -13.58300
       H    -8.50820    0.21368  -13.78016
       O    -9.32104    0.53382  -13.45118
      H1    -9.22807    1.39285  -13.04703
       H    -3.63129    1.96004  -10.62519
       O    -3.62504    2.21832  -11.55539
      H1    -4.58110    2.27691  -11.56495
       H    -4.88567   -4.82573  -10.52501
       O    -4.52635   -5.64520  -10.80510
      H1    -4.78566   -5.76826  -11.73809
       H    -3.70899   -6.34147  -13.52872
       O    -4.65448   -6.49051  -13.39542
      H1    -5.23333   -5.97800  -13.98577
       H    -1.44784   -3.04323  -11.98687
       O    -1.74143   -2.68611  -12.81235
      H1    -1.26362   -3.32070  -13.43787
       H    -9.13919   -4.10744  -12.51535
       O    -8.19338   -4.18179  -12.60583
      H1    -7.93874   -4.56400  -13.47437
       H   -11.32064   -0.48226  -15.55926
       O   -11.41447    0.34327  -15.05929
      H1   -10.77732    0.17950  -14.33873
       H    -5.80218   -0.13519   -9.55280
       O    -4.89983    0.05237   -9.85545
      H1    -4.71360   -0.65401  -10.42633
       H    -7.48122   -2.86650  -16.02693
       O    -6.62372   -3.17955  -16.35683
      H1    -5.96159   -2.38168  -16.18472
       H    -6.62584   -4.45625  -15.19716
       O    -6.80999   -5.24001  -14.64214
      H1    -6.90870   -5.94429  -15.30408
       H    -6.37095    3.13983  -10.74824
       O    -6.35841    2.73745  -11.61290
      H1    -6.57416    3.40856  -12.23813

