81
frame 8 | Written by MDAnalysis XYZWriter (release 2.4.3)
       H     8.78491   -1.24301   -0.50552
       O     8.57102   -2.14801   -0.81427
      H1     9.07394   -2.72467   -0.22965
       H     3.92590   -5.75891   -5.61267
       O     3.17692   -5.22629   -5.97912
      H1     3.30769   -5.36436   -6.93280
       H     4.74479   -1.40804   -2.33328
       O     4.41498   -2.05716   -2.93229
      H1     5.08668   -2.79449   -2.84368
       H    -0.79346   -2.45372   -3.91901
       O    -1.70692   -2.29593   -3.67463
      H1    -1.66102   -1.76303   -2.88084
       H     7.26347   -2.69532    0.57076
       O     7.09745   -3.03153    1.49708
      H1     6.13821   -3.12503    1.48296
       H     0.73182    0.77292   -5.58293
       O     0.54302    1.66909   -5.90545
      H1     0.02826    1.52968   -6.68764
       H     0.19313   -4.94079    0.70745
       O     0.00516   -4.24193    0.03058
      H1     0.83383   -3.97370   -0.36518
       H     1.74783    0.95876    0.04009
       O     2.21515    1.74377    0.30999
      H1     2.85532    1.29471    0.89374
       H     0.55090   -4.14193   -5.35875
       O     0.59174   -3.19897   -5.77723
      H1     1.34330   -3.19091   -6.40366
       H     1.98310   -1.75191   -0.79273
       O     2.57329   -2.53403   -0.90575
      H1     3.11794   -2.20214   -1.63434
       H     2.61070   -4.48381   -1.37624
       O     3.01778   -5.23411   -1.78861
      H1     2.39209   -5.71353   -2.33735
       H     2.14299   -0.47865   -4.25265
       O     1.24957   -0.64654   -4.62579
      H1     1.29518   -1.58319   -4.96198
       H     6.07495    0.49313   -1.20286
       O     5.47542   -0.29297   -1.07727
      H1     5.00851   -0.12265   -0.23798
       H     2.80384    2.85017   -2.96843
       O     2.92325    1.96451   -2.56611
      H1     2.87505    2.21861   -1.65768
       H     7.04932   -2.57092   -5.55293
       O     7.84823   -3.12188   -5.38396
      H1     8.35225   -2.66059   -4.61421
       H     5.26487    0.69921   -4.73230
       O     4.42084    0.25924   -4.72190
      H1     4.03422    0.74778   -3.99614
       H     7.18341    2.06231   -2.83967
       O     7.19085    1.72982   -1.93143
      H1     6.96397    2.52415   -1.34021
       H     3.60497    1.03580   -6.03139
       O     3.20789    1.55394   -6.81006
      H1     2.29337    1.73280   -6.60674
       H     4.94027   -4.99047   -2.46983
       O     5.83697   -4.69602   -2.70911
      H1     6.14490   -5.03829   -3.56385
       H     3.63670   -8.05983   -0.39391
       O     3.30655   -7.28121    0.07920
      H1     3.35348   -6.56137   -0.59295
       H     4.88805   -3.37657   -5.60727
       O     5.03106   -2.39068   -5.63975
      H1     4.84320   -2.11250   -4.68635
       H     3.87785   -3.22515   -0.03376
       O     4.49874   -3.60224    0.61104
      H1     5.09749   -4.24808    0.19997
       H     9.33569   -0.95925   -3.68808
       O     9.29887   -1.91113   -3.58332
      H1     9.14671   -2.15262   -2.63423
       H     4.85736    0.85020    2.13859
       O     4.16117    0.36943    1.70806
      H1     3.56323    0.02811    2.43109
       H     6.33896   -5.91047   -5.79034
       O     6.79035   -5.66616   -4.98487
      H1     7.11379   -4.81387   -5.25506
       H     0.39666   -0.94498    0.37544
       O     0.69557   -0.42851   -0.40697
      H1    -0.09908   -0.14460   -0.92639
       H     4.14894   -1.57118   -7.23318
       O     3.81332   -0.96163   -7.91506
      H1     3.64723   -0.13964   -7.41501

