81
frame 8 | Written by MDAnalysis XYZWriter (release 2.4.3)
       H    12.43083   -2.47656   -0.44819
       O    12.98970   -2.09589   -1.13101
      H1    13.48990   -2.84403   -1.55686
       H    14.26925    4.15987    1.94365
       O    14.67415    4.87747    1.39982
      H1    15.28673    4.38038    0.89215
       H    14.14777   -4.79506   -3.20172
       O    14.27704   -4.31282   -2.35194
      H1    14.02013   -4.93320   -1.63667
       H    14.85508    3.20669   -5.80794
       O    14.57766    3.07623   -4.82930
      H1    13.89615    3.72601   -4.60170
       H    17.18870    2.74613    1.27500
       O    16.97993    3.27000    0.48158
      H1    17.77563    3.20262   -0.08091
       H    15.28012   -1.23982   -3.78883
       O    15.85865   -0.92646   -3.07475
      H1    15.28063   -0.28272   -2.54761
       H    14.57747    0.49475   -0.58531
       O    14.42690    0.78891   -1.48553
      H1    14.56487    1.73821   -1.60966
       H    14.45666    3.09135    3.82279
       O    14.90308    2.57014    3.09573
      H1    14.51603    1.70928    3.06775
       H    11.84317   -2.86303    1.75736
       O    11.19090   -2.73252    1.00664
      H1    10.71818   -3.59408    1.08337
       H    17.63196   -2.90513    0.07556
       O    16.71572   -3.11084    0.05772
      H1    16.46662   -3.18196   -0.89214
       H    10.62767    1.77362   -1.61076
       O     9.87996    2.34742   -1.28989
      H1     9.00118    1.99535   -1.50828
       H    12.80686    0.66884   -1.75005
       O    11.88616    0.53406   -2.05390
      H1    11.87502   -0.43759   -2.02325
       H    11.67002    4.08707    1.07991
       O    11.68392    3.90274    2.02661
      H1    11.03159    4.44225    2.46313
       H    13.35186   -1.57046    3.91443
       O    13.51083   -0.77354    3.40408
      H1    13.01285   -0.03257    3.73479
       H    15.42787    3.07324   -0.70927
       O    14.93065    3.36824   -1.48286
      H1    15.57250    3.47260   -2.22174
       H    13.08299    1.97662   -4.64945
       O    12.43545    1.32361   -4.85001
      H1    12.13540    0.91657   -4.02196
       H    18.27279   -2.94323   -2.52657
       O    17.37467   -3.29154   -2.62195
      H1    16.86003   -2.47451   -2.62710
       H    16.71214    3.39340   -4.49095
       O    17.34654    3.89721   -3.97610
      H1    18.16261    3.71943   -4.46294
       H    16.55129   -6.30397    0.86667
       O    15.99780   -5.57865    1.16906
      H1    16.27066   -4.79317    0.68373
       H    11.16250   -2.33972   -4.14978
       O    11.95878   -2.81497   -3.76083
      H1    11.78493   -3.25944   -2.96072
       H    15.34197   -1.32346    0.95761
       O    15.04898   -0.40752    1.26069
      H1    14.47533   -0.58003    2.06238
       H    17.56397    0.36677   -5.61361
       O    17.68435    0.43361   -4.69758
      H1    16.85137    0.06870   -4.27046
       H    16.62946   -0.25588    5.62480
       O    16.06215   -0.98928    5.40497
      H1    15.52127   -0.66623    4.67179
       H    13.67716   -2.27226   -4.73074
       O    14.56960   -2.51975   -5.12443
      H1    14.58421   -3.48399   -5.19753
       H    11.09896    0.80396    3.60564
       O    11.81495    1.25131    4.12764
      H1    11.98958    2.09275    3.70854
       H    13.50611    4.39592   -1.10317
       O    12.86229    5.00054   -0.81946
      H1    13.16884    5.39073    0.02375
       H     9.98294    0.73542   -0.04739
       O     9.49722    0.15728    0.54145
      H1    10.19407   -0.20941    1.09808

