81
frame 7 | Written by MDAnalysis XYZWriter (release 2.4.3)
       H    -8.41930   19.35480   -7.17143
       O    -8.38327   19.22475   -6.19233
      H1    -9.29557   19.13121   -5.85659
       H   -15.65583   13.62051  -12.76621
       O   -16.18749   14.14532  -12.14053
      H1   -15.55475   14.76912  -11.71453
       H   -10.68211   17.37912   -9.66943
       O   -10.42478   17.23407  -10.56397
      H1    -9.48891   17.26449  -10.51957
       H   -11.22829   19.70018   -9.24685
       O   -11.05680   19.37860   -8.35812
      H1   -11.98746   19.46453   -8.00913
       H   -11.57368   15.88131  -13.78428
       O   -11.63086   14.95642  -13.58047
      H1   -10.95411   14.32283  -13.94928
       H    -5.80844   14.24093  -10.43315
       O    -6.61292   14.74236  -10.20461
      H1    -6.26140   15.63107  -10.11590
       H    -8.64535   18.50540  -13.22568
       O    -8.22875   18.44645  -12.35800
      H1    -7.53328   17.77023  -12.52097
       H    -9.01476   18.74682   -8.59907
       O    -8.18278   19.18020   -8.78704
      H1    -7.50761   18.50708   -8.87929
       H    -9.74423   16.56253   -7.03074
       O   -10.42689   16.52404   -7.66734
      H1   -11.10490   17.13179   -7.33065
       H   -13.44419   13.76110  -13.06733
       O   -13.86422   12.96444  -13.37123
      H1   -13.88833   13.00429  -14.31878
       H    -5.16046   17.04856  -13.31115
       O    -6.12702   16.96757  -13.26386
      H1    -6.39860   17.24241  -14.13810
       H   -13.31254   16.01906  -11.52855
       O   -14.04743   15.60635  -11.04135
      H1   -13.56755   15.03114  -10.47644
       H   -12.00176   17.37484  -17.55609
       O   -11.65709   16.48922  -17.23587
      H1   -12.25583   15.77813  -17.54174
       H    -5.66565   16.94279   -8.43331
       O    -5.95399   17.36900   -9.23172
      H1    -5.18551   17.72299   -9.55231
       H   -15.34974   18.69667  -12.51822
       O   -16.08503   18.06579  -12.40135
      H1   -16.88199   18.57556  -12.65630
       H    -8.09753   15.81814  -15.64594
       O    -8.01965   14.97426  -15.11099
      H1    -7.13160   14.85933  -14.76825
       H   -13.38694   17.37278   -7.30896
       O   -12.71475   17.46856   -6.60608
      H1   -12.74677   16.58280   -6.17902
       H   -16.43511   18.10529  -10.68785
       O   -16.71190   18.21906   -9.76666
      H1   -17.28565   19.04293   -9.89290
       H   -12.69905   13.85550   -7.56374
       O   -12.01278   14.28598   -6.97120
      H1   -11.52097   14.89967   -7.53017
       H   -15.00485   17.90670   -9.42451
       O   -14.15479   17.47408   -9.12611
      H1   -14.14169   16.76017   -9.75838
       H   -11.45194   17.22039  -15.47141
       O   -11.59277   17.80467  -14.70779
      H1   -12.55498   17.87401  -14.58099
       H   -10.09330   18.39763  -14.82101
       O    -9.19922   18.70303  -15.11787
      H1    -9.12909   19.58592  -14.73365
       H   -10.82063   20.14621  -12.53964
       O   -11.38109   19.76990  -11.85583
      H1   -11.12266   18.85997  -11.63664
       H   -11.56398   14.88946  -11.96433
       O   -11.42235   14.69706  -11.02969
      H1   -11.07353   15.50778  -10.67231
       H   -14.53716   16.49443  -15.09691
       O   -14.17146   17.29681  -14.73698
      H1   -14.98084   17.57051  -14.28077
       H    -9.94114   13.77418  -10.54927
       O    -9.09453   13.46914  -10.10569
      H1    -8.55784   14.28998  -10.26123
       H    -9.83168   19.30120  -16.54713
       O    -9.89899   19.65096  -17.46462
      H1    -9.02051   19.40086  -17.80554

