81
frame 8 | Written by MDAnalysis XYZWriter (release 2.4.3)
       H     8.56339   -9.00886    7.12764
       O     8.28160   -8.54571    6.37420
      H1     8.92422   -7.90157    6.23093
       H    13.59276   -7.08356    2.43186
       O    14.03306   -6.46639    3.02199
      H1    14.96232   -6.19331    2.64143
       H    13.91331   -9.00387   -0.20631
       O    13.22956   -8.50092   -0.80707
      H1    12.76098   -9.20043   -1.22423
       H    14.12583   -6.32840    9.54040
       O    13.80161   -6.71344    8.68713
      H1    13.85069   -6.01433    8.03264
       H     6.16721   -6.36588    1.66973
       O     6.79827   -5.85941    1.15979
      H1     6.76947   -5.01783    1.56358
       H     9.69056   -3.75892    5.05910
       O    10.59582   -3.34287    5.01677
      H1    11.05503   -3.86747    4.36380
       H    11.62845   -9.11306    5.81393
       O    11.92997   -9.94033    6.18436
      H1    12.71579   -9.59805    6.63268
       H    15.03884  -10.42745    1.09331
       O    15.05764   -9.46284    0.97674
      H1    15.31113   -9.09211    1.89708
       H    10.25727   -1.54486    3.26467
       O    10.22395   -0.59488    3.18738
      H1     9.31525   -0.36710    3.55601
       H    12.67289  -11.21912    3.40366
       O    11.89950  -10.62937    3.38947
      H1    11.69921  -10.53084    4.30139
       H     9.36820   -9.83058    0.48271
       O     9.40409  -10.79991    0.52041
      H1     8.73161  -11.08018   -0.02968
       H    12.91008   -6.22981    0.57828
       O    13.26713   -5.39936    0.30262
      H1    14.17877   -5.39178    0.68681
       H    13.24729   -4.00713    3.68443
       O    13.58024   -3.27938    4.28708
      H1    14.54101   -3.35459    4.21808
       H    10.61744   -6.97687    3.73484
       O     9.79452   -6.74146    3.24873
      H1     9.95189   -7.20198    2.38694
       H     7.60942   -6.55881    8.30564
       O     8.14048   -5.80850    8.69230
      H1     9.06211   -5.92487    8.46125
       H    11.84317   -2.86303    1.75736
       O    11.19090   -2.73252    1.00664
      H1    10.71818   -3.59408    1.08337
       H     7.51811   -9.99854    5.51711
       O     7.13539  -10.82355    5.18573
      H1     7.72622  -11.31241    4.63053
       H     9.26925  -11.13793    2.45041
       O     9.04478  -11.47701    3.28372
      H1     9.94504  -11.64209    3.52713
       H    11.37877   -7.32831   -1.41641
       O    10.43644   -7.39903   -1.69432
      H1    10.55078   -7.92245   -2.51602
       H    13.40505   -3.90634    7.59887
       O    13.78292   -4.53145    6.95959
      H1    13.52516   -4.05089    6.14613
       H    12.04784   -5.17316    2.40054
       O    11.35940   -4.75078    2.99880
      H1    10.62819   -5.37557    3.24277
       H     7.06156   -4.99882    4.93685
       O     7.99767   -4.91172    4.95135
      H1     8.25669   -5.71417    4.43599
       H    11.62159   -6.88115    5.78449
       O    11.94185   -7.40920    5.00344
      H1    12.72828   -7.09086    4.55526
       H    12.28851   -8.29038    0.85676
       O    12.21768   -7.94936    1.77832
      H1    11.97215   -8.71791    2.26917
       H    11.04348   -4.79378    6.44247
       O    10.72130   -5.59196    6.91393
      H1    11.10741   -5.51523    7.80486
       H     9.03339   -7.47966   -0.18394
       O     8.84395   -7.77154    0.70287
      H1     8.04342   -7.33503    1.01127
       H     6.41592   -4.00485    7.82450
       O     7.01282   -3.56870    7.21151
      H1     7.68274   -4.24593    7.26899

