81
frame 7 | Written by MDAnalysis XYZWriter (release 2.4.3)
       H    -4.54450    4.15021   12.89879
       O    -4.59224    3.34656   12.44278
      H1    -4.71370    2.70546   13.13154
       H   -10.68777    6.29160   13.55947
       O   -10.99801    6.35731   14.52738
      H1   -11.52728    7.15047   14.57481
       H    -9.71993   10.86842   13.83395
       O   -10.09103   11.37879   14.53100
      H1    -9.36296   11.90431   14.89653
       H   -12.32998    7.36503   10.66658
       O   -11.70483    6.87277   10.05008
      H1   -10.87407    7.04388   10.43735
       H   -13.24858    3.99983   15.24375
       O   -12.67035    4.17377   14.52101
      H1   -11.96879    4.64136   14.89416
       H    -8.27935    9.41860    9.71517
       O    -8.71359   10.11460   10.19515
      H1    -8.54831    9.90255   11.10783
       H   -11.42582    9.83619   17.44009
       O   -12.28176    9.93674   17.82645
      H1   -12.76988   10.28203   17.07652
       H    -7.90961    2.11740   14.65743
       O    -7.58469    2.86492   15.13972
      H1    -7.39215    3.55518   14.52409
       H    -5.40103    7.77374   10.63198
       O    -5.25395    7.31741    9.74835
      H1    -5.05083    8.06070    9.13527
       H    -7.68551   11.38849   17.47492
       O    -8.42947   11.37344   18.17508
      H1    -7.97172   11.04698   18.90086
       H    -8.73721    5.46095   12.56512
       O    -9.35171    5.96008   12.00057
      H1    -9.98752    5.27879   11.68622
       H    -5.46293   12.36966   13.08249
       O    -6.37997   12.36327   12.75661
      H1    -6.24996   12.45974   11.79429
       H    -1.95638    9.36090   12.48755
       O    -2.87631    9.08143   12.65649
      H1    -2.80311    8.90517   13.60153
       H    -5.53403   10.03793   11.26922
       O    -5.53326    9.16034   11.68688
      H1    -4.64828    9.17975   12.11736
       H    -9.98697    7.31183   17.08458
       O    -9.40725    6.56197   16.80255
      H1    -9.82583    6.31785   15.95429
       H    -8.41765    7.42553   15.25307
       O    -7.78112    7.91689   14.64401
      H1    -7.03865    8.03072   15.22544
       H    -9.92282   10.25053   15.82637
       O    -9.91151    9.80279   16.67806
      H1    -9.44229   10.38732   17.29122
       H    -5.46223    5.82090   15.29476
       O    -4.96447    5.51158   14.49279
      H1    -4.03320    5.29706   14.75888
       H    -7.95738    9.23148   13.27551
       O    -8.26894   10.09529   12.87450
      H1    -7.56118   10.71385   13.00241
       H    -3.28252   10.51262   15.24792
       O    -3.08852    9.53367   15.31494
      H1    -2.20141    9.47583   15.69029
       H    -6.79838    5.53893   13.51816
       O    -7.26753    4.75092   13.20529
      H1    -6.69371    4.23704   12.65354
       H    -8.26684    6.67850   10.72977
       O    -7.83628    6.86268    9.84362
      H1    -6.90582    6.98351    9.87718
       H    -3.82964   12.86913   14.97858
       O    -4.25106   12.01655   15.01632
      H1    -4.98885   12.05711   15.67624
       H    -5.95703   12.19269   17.32670
       O    -6.27877   11.62492   16.61153
      H1    -6.79872   12.28714   16.12708
       H    -7.92990    5.25062   19.46381
       O    -8.79933    5.26367   19.05838
      H1    -8.76964    5.45015   18.14189
       H    -5.86700    9.29207   16.32341
       O    -5.44634    8.47241   16.16025
      H1    -4.55898    8.76640   15.84622
       H    -5.06992    8.71536   17.98235
       O    -4.62735    8.37110   18.75569
      H1    -5.21489    8.65032   19.52326

