81
frame 8 | Written by MDAnalysis XYZWriter (release 2.4.3)
       H   -18.83872   -3.67333  -12.67957
       O   -18.92797   -3.47864  -13.66364
      H1   -19.66036   -4.04093  -13.93043
       H   -17.94523   -0.16012  -14.42271
       O   -17.96091    0.15379  -13.48009
      H1   -17.07743   -0.04068  -13.11840
       H   -16.35379   -0.55308  -10.65278
       O   -15.68662   -0.91777  -11.30598
      H1   -16.05766   -1.63970  -11.88341
       H   -13.84291   -1.65753  -16.49834
       O   -14.27579   -0.83576  -16.68734
      H1   -14.56162   -0.38693  -15.86979
       H   -16.26680   -6.50384  -13.98641
       O   -17.08105   -6.83992  -14.39138
      H1   -17.76329   -6.79546  -13.70998
       H   -17.10735   -3.44728  -13.46456
       O   -16.13573   -3.26513  -13.37400
      H1   -15.74490   -4.10411  -13.24175
       H   -17.72367   -0.13296  -16.39309
       O   -17.91855   -0.95930  -15.93094
      H1   -17.11229   -1.50651  -16.16059
       H   -12.93140   -9.55246  -14.07008
       O   -13.47519   -8.91019  -13.56151
      H1   -14.20847   -9.46583  -13.23623
       H   -19.49017   -3.78593  -10.89158
       O   -18.59336   -3.53135  -10.98674
      H1   -18.04540   -4.01861  -10.30990
       H   -17.67556    2.23361  -16.51594
       O   -18.04245    1.57941  -17.18710
      H1   -17.45638    1.27169  -17.89249
       H   -14.27848  -11.07900  -16.32367
       O   -15.10061  -11.57145  -16.50345
      H1   -15.77265  -10.87486  -16.25776
       H   -18.48604   -6.74482  -15.68421
       O   -19.17661   -6.62654  -16.34347
      H1   -19.18396   -7.45738  -16.84216
       H   -16.38814  -10.28947  -18.25934
       O   -16.25454   -9.40714  -18.71173
      H1   -16.39050   -8.80449  -18.00538
       H   -12.61283   -8.73126  -16.52986
       O   -12.57451   -7.88665  -16.98029
      H1   -11.82035   -7.75183  -17.58768
       H   -15.94426   -0.86582  -19.15866
       O   -15.22616   -1.49245  -19.31826
      H1   -14.76399   -1.43566  -18.42491
       H   -18.41867  -11.94138  -18.89363
       O   -18.15555  -12.06044  -17.98274
      H1   -18.90955  -11.67409  -17.51926
       H   -14.88399   -3.61488  -17.49034
       O   -14.26562   -4.21509  -17.98094
      H1   -14.27970   -3.94604  -18.90258
       H   -19.50025   -7.75893  -12.38252
       O   -19.19701   -6.87373  -12.16118
      H1   -19.96754   -6.38496  -12.57807
       H   -14.94250   -5.98560  -17.10179
       O   -15.06851   -6.92921  -17.03213
      H1   -14.09719   -7.18488  -17.06410
       H   -11.79753   -7.09717  -15.67422
       O   -11.32649   -6.66385  -14.92898
      H1   -10.47222   -6.41838  -15.36573
       H   -16.72926   -3.36671  -16.83832
       O   -16.06157   -2.97888  -16.24858
      H1   -16.09402   -3.53055  -15.49221
       H   -18.79927   -3.90594  -17.61370
       O   -18.18371   -4.58936  -18.04130
      H1   -18.23548   -5.43862  -17.47692
       H   -15.05062   -7.39150  -10.60617
       O   -15.61513   -6.74332  -11.12980
      H1   -16.47556   -7.22136  -11.22640
       H   -12.83020   -3.77030  -17.25444
       O   -11.96275   -3.52730  -16.85322
      H1   -11.26115   -3.52803  -17.59749
       H   -15.31004   -6.50461  -18.98853
       O   -15.39073   -6.41849  -19.97277
      H1   -15.32915   -5.51600  -20.19085
       H   -17.58443  -10.46282  -15.04083
       O   -17.11351   -9.86764  -15.59660
      H1   -17.14917   -9.04056  -15.11192
       H   -14.01750   -7.10980  -13.70708
       O   -14.37372   -6.26865  -13.41975
      H1   -14.94658   -6.32615  -12.60922

