81
frame 8 | Written by MDAnalysis XYZWriter (release 2.4.3)
       H     2.86099    4.60521  -10.92577
       O     3.30820    3.80924  -10.63327
      H1     3.63372    4.06159   -9.78606
       H    -0.43340    5.09295   -6.61007
       O     0.08151    5.22989   -7.42927
      H1    -0.35056    4.70086   -8.08364
       H     0.73182    0.77292   -5.58293
       O     0.54302    1.66909   -5.90545
      H1     0.02826    1.52968   -6.68764
       H     4.37649    6.69143   -4.25641
       O     4.62114    7.31946   -4.97114
      H1     3.97228    7.20356   -5.66303
       H     4.62450    4.01499   -7.63610
       O     3.71959    4.14958   -7.96036
      H1     3.19130    3.39499   -7.76436
       H    -0.42716    2.80950   -9.15148
       O     0.43529    3.16705   -9.17512
      H1     0.49726    3.55663  -10.10356
       H     4.89449   -0.24967   -9.65959
       O     5.35429    0.13200  -10.44937
      H1     4.63803    0.43752  -11.03885
       H     0.53906    6.69291   -8.09126
       O     0.57742    7.66914   -8.26742
      H1     0.09713    7.98001   -7.45321
       H     2.80384    2.85017   -2.96843
       O     2.92325    1.96451   -2.56611
      H1     2.87505    2.21861   -1.65768
       H     2.35799    7.27048  -11.07937
       O     2.63894    6.38660  -11.26057
      H1     2.76051    6.50728  -12.23904
       H     4.28802    5.72155  -12.00182
       O     5.20880    5.61084  -12.32373
      H1     5.41554    4.68714  -12.14286
       H     7.63074    7.07119  -10.22346
       O     7.56145    6.75465  -11.13844
      H1     6.65439    6.55419  -11.38329
       H     1.31342    2.61406  -12.00422
       O     0.58248    3.24855  -12.04837
      H1    -0.26844    2.74702  -12.16268
       H     5.26487    0.69921   -4.73230
       O     4.42084    0.25924   -4.72190
      H1     4.03422    0.74778   -3.99614
       H     0.87527    0.08143  -10.14269
       O     1.55524    0.13954  -10.83442
      H1     1.86612    1.05614  -10.84683
       H     6.79637    3.64166   -6.39570
       O     6.20422    4.11084   -7.02623
      H1     6.66109    4.98628   -7.08824
       H     3.89857    1.71032  -13.02698
       O     3.56349    1.57291  -12.11754
      H1     3.65069    2.44106  -11.60943
       H     6.47476    1.28961   -9.75033
       O     7.13605    1.90537   -9.36178
      H1     6.67327    2.71115   -9.12734
       H     7.85359    6.86168   -6.13997
       O     8.13321    6.05977   -6.66200
      H1     9.09073    6.09403   -6.49339
       H     7.81141    7.17689   -7.96416
       O     7.70306    7.85688   -8.67259
      H1     6.77922    8.14107   -8.46299
       H     3.60497    1.03580   -6.03139
       O     3.20789    1.55394   -6.81006
      H1     2.29337    1.73280   -6.60674
       H     2.46461    4.51024   -4.16976
       O     2.72634    4.86800   -3.33013
      H1     1.89861    4.90379   -2.76636
       H     4.97295    9.30427   -9.65850
       O     5.12229    9.22066   -8.69144
      H1     4.45320    8.53600   -8.36189
       H     6.05389    8.16771   -5.58148
       O     7.01069    8.29869   -5.65323
      H1     7.00125    9.18581   -6.01752
       H     8.10907    3.39563   -5.00702
       O     7.24036    2.87975   -4.91700
      H1     6.65697    3.52538   -4.52542
       H     3.65784    6.11583   -7.51834
       O     3.42257    7.04284   -7.32549
      H1     2.47470    7.15976   -7.55754
       H     4.14894   -1.57118   -7.23318
       O     3.81332   -0.96163   -7.91506
      H1     3.64723   -0.13964   -7.41501

