81
frame 7 | Written by MDAnalysis XYZWriter (release 2.4.3)
       H   -10.76795  -13.05955   13.17769
       O   -11.00359  -13.85101   12.66096
      H1   -11.95049  -13.95347   12.67156
       H   -12.43363   -7.51588   17.86693
       O   -13.33039   -7.93983   17.72779
      H1   -13.90353   -7.49869   18.37920
       H   -11.26876  -10.06051   17.01102
       O   -12.04792  -10.29937   17.52186
      H1   -12.45356   -9.41092   17.68354
       H    -7.39412   -5.30075   18.06230
       O    -6.72282   -5.42438   18.75101
      H1    -5.81569   -5.12990   18.53695
       H   -14.24693  -10.03257   15.21200
       O   -13.95100  -10.83502   15.63540
      H1   -13.25366  -10.55837   16.32874
       H   -11.19426   -3.79869   17.09413
       O   -11.52243   -4.60625   17.59937
      H1   -11.19803   -5.29716   17.03681
       H   -10.03154   -8.52186   15.77612
       O    -9.56408   -9.30367   15.68010
      H1    -9.57811   -9.49139   14.77347
       H    -9.03610   -4.30941   19.98548
       O   -10.00027   -4.57615   19.97387
      H1   -10.37086   -4.58024   19.05704
       H    -7.89012  -13.27423   16.14888
       O    -7.00337  -13.71740   16.30673
      H1    -6.37237  -13.83663   15.55158
       H    -8.73795  -12.50606   12.07228
       O    -8.25315  -12.42751   12.92601
      H1    -7.43935  -11.85023   12.79320
       H   -11.46502  -10.37778   10.94770
       O   -10.54635  -10.60921   10.92113
      H1   -10.57210  -11.39544   10.32080
       H   -11.74957  -10.98821   13.53486
       O   -10.78813  -11.23173   13.60610
      H1   -10.41221  -11.29408   12.69580
       H    -7.24584   -7.68344   15.33274
       O    -7.38542   -7.12485   14.54962
      H1    -8.05559   -7.62362   14.02203
       H    -6.80216   -7.21462   19.39195
       O    -6.58407   -8.14665   19.18818
      H1    -6.85443   -8.28973   18.28275
       H   -13.38867   -7.33455   11.87445
       O   -13.94462   -7.07450   12.60706
      H1   -13.37494   -6.41211   13.11609
       H    -9.57200  -12.16790   15.24130
       O    -9.51532  -12.40972   16.16196
      H1   -10.32263  -12.95673   16.38513
       H    -8.97818   -5.88700   10.69535
       O    -9.68046   -5.58351   11.30796
      H1    -9.27590   -4.90822   11.85329
       H    -6.26636   -9.44189   16.25828
       O    -7.00007   -8.88559   16.57425
      H1    -7.82467   -9.28135   16.27928
       H   -13.74736   -6.70938   16.40309
       O   -14.09295   -5.85462   16.02920
      H1   -15.02097   -5.98704   15.81459
       H   -12.33685   -6.81837    9.86758
       O   -11.98107   -7.22191   10.66020
      H1   -11.29330   -6.63217   10.93380
       H    -9.36456   -7.32016   12.35709
       O    -9.47436   -8.10595   12.83678
      H1    -9.11547   -8.76835   12.22926
       H    -8.89970   -4.43922   15.89137
       O    -8.65128   -5.28403   16.37737
      H1    -7.93731   -5.72445   15.86766
       H   -10.26644   -7.42276   17.87370
       O   -10.43331   -7.19316   16.94175
      H1    -9.70838   -6.58742   16.70061
       H    -5.60640   -7.33702   17.93361
       O    -4.95703   -7.04575   17.22946
      H1    -4.28737   -7.72924   17.30537
       H    -9.09682  -11.00555   17.69576
       O    -8.71943  -10.89884   18.55428
      H1    -7.81677  -11.04672   18.22771
       H   -13.21169   -4.85110   14.93828
       O   -13.02345   -4.37307   14.09699
      H1   -13.92715   -4.19648   13.84930
       H   -15.14933   -9.64618   13.51877
       O   -15.02565   -8.92558   14.12168
      H1   -14.50798   -8.24942   13.62140

