81
frame 8 | Written by MDAnalysis XYZWriter (release 2.4.3)
       H     4.71136   15.73980  -11.10628
       O     3.80953   15.82011  -10.91166
      H1     3.34681   15.65471  -11.72756
       H     3.21286   16.46192  -14.56462
       O     3.58283   17.13983  -15.12629
      H1     3.91441   16.89222  -15.95750
       H     5.43213   19.61569  -14.90280
       O     4.63655   19.57383  -14.29258
      H1     4.21613   18.74887  -14.51942
       H    -4.42292   15.81031  -15.03343
       O    -4.08756   15.10531  -15.62360
      H1    -4.53197   15.28979  -16.49267
       H    -3.25382   16.95241  -13.17035
       O    -3.48012   17.86793  -13.54804
      H1    -2.80613   18.04170  -14.24911
       H     0.44987   16.82309  -13.28461
       O     0.03604   15.97234  -12.99515
      H1     0.08209   16.07172  -12.04321
       H     1.78335   15.23220  -13.46628
       O     2.74524   15.28314  -13.36627
      H1     3.11358   14.69502  -14.06565
       H    -1.54905   17.40130  -17.30628
       O    -0.79635   17.27573  -16.71498
      H1    -0.75000   16.30557  -16.67406
       H    -4.30862   16.80117  -18.20262
       O    -4.88554   16.09290  -17.97295
      H1    -4.83766   15.41828  -18.64281
       H    -1.45426   18.87288  -10.54259
       O    -1.42334   18.66855   -9.58399
      H1    -2.19205   19.13340   -9.28435
       H    -4.65169   13.07710  -15.19499
       O    -4.83967   12.25109  -15.56971
      H1    -4.67188   11.50673  -14.96192
       H    -1.70096   19.06564  -14.03522
       O    -1.67466   19.08186  -15.00081
      H1    -1.28108   18.28438  -15.40077
       H    -1.65187   12.59207  -13.98712
       O    -1.69813   13.39907  -13.45007
      H1    -0.72948   13.55187  -13.23684
       H    -8.83532   18.60072  -13.45842
       O    -8.33247   17.90554  -12.99435
      H1    -7.77047   17.41510  -13.62596
       H     2.93201   17.74951  -11.16901
       O     2.25705   18.36091  -11.42363
      H1     2.57773   19.22735  -11.19682
       H     1.98673   17.98511  -14.49108
       O     1.24869   18.18185  -13.96134
      H1     1.52353   18.26898  -13.07243
       H    -5.25632   17.29858  -13.86314
       O    -6.04794   16.91956  -14.31328
      H1    -6.18455   17.26316  -15.18641
       H    -6.73386   16.83815  -17.64083
       O    -7.37324   16.83641  -16.88130
      H1    -8.31742   16.71947  -17.20082
       H    -0.18273   12.99552  -18.94532
       O    -0.42657   13.93456  -18.98436
      H1    -0.90238   14.04824  -18.08114
       H    -7.04456   14.96405  -16.28010
       O    -7.28430   14.06949  -16.48608
      H1    -6.89669   13.56689  -15.80164
       H     3.18967   17.76891  -18.17864
       O     3.71747   17.00294  -17.87666
      H1     4.66553   17.16225  -17.99868
       H    -3.09653   18.83031  -18.23334
       O    -2.87848   17.91586  -18.20007
      H1    -2.58555   17.81703  -19.10995
       H    -1.31840   14.26063  -15.27119
       O    -1.20260   14.67542  -16.17954
      H1    -2.03024   15.16891  -16.19005
       H     0.44922   18.28963  -18.03209
       O     1.26072   18.72026  -18.43323
      H1     1.67428   19.15784  -17.63694
       H    -2.75583   14.68561  -12.57889
       O    -3.23831   15.46120  -12.17280
      H1    -2.66089   15.80735  -11.46896
       H    -2.21370   15.70186   -8.55908
       O    -1.84962   15.91281   -9.43501
      H1    -1.74266   16.88559   -9.43495
       H     0.92145   16.48246   -7.84284
       O     1.04479   17.44967   -7.86964
      H1     0.54858   17.68406   -8.70584

