81
frame 8 | Written by MDAnalysis XYZWriter (release 2.4.3)
       H    -9.05114   -1.72913    2.27672
       O    -8.07782   -1.55401    2.17668
      H1    -7.82813   -0.70297    2.67045
       H    -7.34325    0.42627    6.33066
       O    -6.72437    1.09715    6.08850
      H1    -5.80895    0.67678    6.05941
       H    -9.79043    6.14480    4.35709
       O    -9.29827    5.99298    3.50233
      H1    -8.40718    5.69512    3.76075
       H    -9.96110    3.75219    6.59096
       O    -9.28661    3.13308    6.76290
      H1    -8.71639    3.62287    7.34880
       H    -6.48951    4.99556    0.98163
       O    -6.40818    4.46851    0.15738
      H1    -6.85359    3.60874    0.23509
       H   -10.61383    0.14337    3.10397
       O   -10.33922    0.71014    2.32617
      H1   -10.15238    0.03137    1.66714
       H   -13.84556   -2.40817    1.94052
       O   -13.20472   -1.91298    1.35062
      H1   -13.59710   -1.85974    0.48272
       H   -11.88168   -0.95872    4.15626
       O   -10.89550   -0.98264    4.31063
      H1   -10.79954   -0.31204    5.03864
       H   -13.62954   -1.69481    4.53741
       O   -13.53942   -0.73480    4.58489
      H1   -14.36266   -0.28557    4.35175
       H   -10.60950    7.55348    5.57460
       O   -10.75443    6.51983    5.69152
      H1   -11.69776    6.25571    5.58303
       H    -7.80301    3.64571    5.83755
       O    -7.47564    4.39283    5.35931
      H1    -6.49208    4.20038    5.19218
       H   -15.01010    4.04927    0.33451
       O   -14.59659    4.87609    0.04264
      H1   -14.67419    4.83460   -0.91358
       H   -11.95315    4.47492    2.23897
       O   -12.62814    5.11194    2.10457
      H1   -13.33752    4.65283    1.66803
       H    -9.95808    1.53531    6.71999
       O   -10.22439    0.65875    6.38552
      H1   -11.11533    0.38541    6.73826
       H   -11.80721   -1.05445    7.27630
       O   -12.55632   -0.49860    7.35867
      H1   -12.96014   -0.57911    6.45312
       H   -10.50781    0.68416   -1.41576
       O   -10.91340    0.90868   -2.25335
      H1   -11.50738    1.66199   -2.05564
       H    -7.30205    1.22485    4.26196
       O    -7.54629    0.84734    3.42809
      H1    -8.45890    0.98820    3.27423
       H   -10.69862    3.64112    0.87127
       O   -10.82836    3.31870   -0.05390
      H1   -11.77903    3.37320   -0.24077
       H   -10.66702   -3.77025    1.04435
       O   -10.61175   -2.83309    0.75517
      H1   -11.37419   -2.44719    1.22813
       H   -12.97168    5.18644    3.86488
       O   -13.08307    5.42129    4.81691
      H1   -13.23152    4.58315    5.20620
       H   -13.26465    0.21922    1.32491
       O   -12.88163    1.02238    0.94768
      H1   -12.05688    1.15855    1.47082
       H   -10.15886    4.15106    3.16062
       O   -10.77251    3.51530    2.74537
      H1   -10.41881    2.64492    2.82792
       H   -14.29305    1.98987    1.39935
       O   -15.09014    2.58012    1.38800
      H1   -15.84004    2.05392    1.67818
       H   -11.80006    5.94634    0.37767
       O   -11.41908    6.59964   -0.19674
      H1   -10.70230    7.08032    0.31974
       H   -12.78010    4.39424    7.54424
       O   -13.14373    3.60937    7.09480
      H1   -13.08880    2.92167    7.81090
       H    -8.94102    2.58145   -0.13575
       O    -8.10295    2.12666   -0.25040
      H1    -7.92512    1.88306   -1.18120
       H    -9.20988   -1.17547   -0.17793
       O    -9.50668   -0.25979   -0.12125
      H1    -8.73146    0.28607   -0.04195

