81
frame 8 | Written by MDAnalysis XYZWriter (release 2.4.3)
       H    17.38097    7.14601    9.72515
       O    16.42158    7.17221    9.81689
      H1    16.17033    6.74479   10.65732
       H    16.52654   12.19648    4.54858
       O    16.91938   11.79404    3.77380
      H1    16.74470   10.81048    3.89792
       H    14.75989   15.78075    3.84693
       O    14.16725   15.04385    3.87680
      H1    14.65047   14.44726    4.43262
       H    17.64904   11.04066   12.72844
       O    17.51580   11.08877   13.68696
      H1    18.11819   10.42319   14.12536
       H    19.13624    8.29112    8.93615
       O    19.29321    7.36460    8.77618
      H1    19.14400    7.16797    7.84475
       H    12.38284   11.54444    8.92760
       O    11.40271   11.58620    9.11806
      H1    11.27267   12.46730    9.41560
       H    14.77518   17.17928    7.95694
       O    14.95967   17.72005    8.72654
      H1    15.86639   17.87497    8.91036
       H    15.02644   10.17022    9.79986
       O    15.41149    9.67954   10.55224
      H1    15.89747    8.96200   10.19057
       H    14.08659    9.50455   11.81854
       O    13.60033    9.30486   12.68476
      H1    12.70932    9.24645   12.33319
       H    16.94495   14.89375    9.61235
       O    17.50576   15.67434    9.59527
      H1    17.63764   15.94341   10.51503
       H    18.06432   10.98899    5.83800
       O    18.29535   11.27931    6.70591
      H1    19.24979   11.15181    6.85401
       H    13.31515   16.86197    6.46832
       O    14.27228   16.71226    6.28379
      H1    14.37851   17.05079    5.39301
       H    17.03505   12.23682    9.63550
       O    16.62792   12.72773    8.91263
      H1    17.03826   12.22353    8.13870
       H    16.98444   14.48052    5.47766
       O    16.13735   14.04261    5.58735
      H1    15.89803   14.20156    6.46168
       H    19.15384   13.43460   14.49098
       O    18.27338   13.50686   14.78911
      H1    17.81917   12.92100   14.11311
       H    14.90881   12.04608    8.90644
       O    14.22036   11.35620    8.78858
      H1    14.48003   11.08519    7.84629
       H    14.42125    8.94627    6.29249
       O    15.02376    9.70411    6.36171
      H1    15.81923    9.26348    6.04473
       H    15.26032   15.54829   12.99937
       O    14.30026   15.39741   12.99439
      H1    14.14506   14.49436   12.67624
       H    18.27950   10.96040   10.92501
       O    17.48118   11.39384   11.13741
      H1    16.79601   10.71598   10.98691
       H    19.41809   14.15186    4.96525
       O    18.77511   14.05391    4.29681
      H1    18.80947   13.08771    4.15759
       H    18.39745   16.50164    8.19020
       O    19.22407   16.87427    7.75895
      H1    18.98388   17.52454    7.18027
       H    13.80155   16.54039   11.73265
       O    13.52522   17.25290   11.15214
      H1    14.15373   17.28420   10.43699
       H    17.41355   15.98552    4.05667
       O    16.73372   16.66282    4.12531
      H1    17.13683   17.44622    4.47579
       H    12.26452   13.37181   11.63208
       O    13.11940   13.06589   12.00502
      H1    12.84753   12.55902   12.79235
       H    17.44729   16.52696   12.80209
       O    17.34706   15.66412   12.31102
      H1    17.48722   14.97090   12.99447
       H    19.40406   13.42359   11.23630
       O    19.54389   14.13240   10.59085
      H1    18.71129   14.54480   10.62095
       H    15.53672    8.53728   13.14093
       O    16.50374    8.48901   13.26588
      H1    16.69452    9.41715   13.31781

