81
frame 9 | Written by MDAnalysis XYZWriter (release 2.4.3)
       H    -4.76678   -3.07210  -11.80925
       O    -4.11796   -3.55754  -11.29535
      H1    -3.26950   -3.19237  -11.56189
       H    -6.32599    0.54780  -14.67433
       O    -5.37511    0.57813  -14.62831
      H1    -5.16745    1.43800  -14.21739
       H    -3.36297   -3.08256  -17.65655
       O    -3.10002   -3.36127  -16.77157
      H1    -3.00094   -2.54104  -16.30581
       H    -2.46117   -0.45915  -14.84576
       O    -2.83024   -1.29842  -14.62743
      H1    -3.62941   -1.20143  -14.08242
       H    -6.18494   -3.40797  -16.73069
       O    -6.54100   -3.02849  -17.52580
      H1    -5.86757   -3.25597  -18.13338
       H     1.01564   -0.95734  -14.98279
       O     1.02935   -1.01177  -15.92054
      H1     1.58730   -0.29735  -16.21311
       H    -6.84144   -2.57367  -13.36285
       O    -5.91935   -2.32933  -13.17472
      H1    -6.04046   -1.51030  -12.64447
       H    -1.94113   -6.60088  -16.60441
       O    -2.10319   -5.90697  -17.28441
      H1    -2.28429   -5.03709  -16.87528
       H     1.79906    2.76982  -11.95175
       O     1.45347    2.95572  -12.82258
      H1     0.57525    2.49991  -12.94996
       H    -5.83904   -1.31352  -17.31056
       O    -5.09764   -0.73340  -17.18772
      H1    -5.01684   -0.47726  -16.27657
       H    -4.59376    3.28648  -18.44503
       O    -4.56749    2.40476  -18.05833
      H1    -5.22561    1.84030  -18.61197
       H    -0.09737   -0.73827  -19.40960
       O     0.64421   -1.06071  -18.88347
      H1     0.34377   -1.90107  -18.37654
       H    -1.45471    1.52216  -12.31292
       O    -0.76049    1.34612  -12.98013
      H1    -0.33695    0.51928  -12.70332
       H    -1.46651    2.79187  -17.30475
       O    -1.51211    3.60884  -16.75921
      H1    -0.70453    3.55098  -16.26273
       H     1.15116   -0.52046  -12.13377
       O     0.69428   -1.03719  -12.82385
      H1    -0.02605   -1.49944  -12.40824
       H    -2.41547    5.22364  -14.69926
       O    -3.13215    4.58940  -14.58285
      H1    -2.98785    3.94208  -15.28687
       H    -2.52002    1.42119  -10.15104
       O    -2.51106    2.01013  -10.94999
      H1    -3.46192    2.17497  -11.16189
       H    -0.22395    0.23504  -15.73600
       O    -1.09301    0.53881  -15.47969
      H1    -0.96994    0.89966  -14.59971
       H    -2.12873    0.78181  -17.15252
       O    -2.22474    1.28436  -17.96540
      H1    -3.16610    1.56348  -18.05152
       H    -0.11226   -2.64556  -16.57936
       O     0.01536   -3.50634  -16.89768
      H1    -0.82511   -3.70476  -17.34690
       H    -6.03304    0.00564  -18.84151
       O    -5.96565    0.42763  -19.67752
      H1    -6.86309    0.73663  -19.87470
       H    -1.31572   -2.51663  -10.79918
       O    -1.60956   -2.58695  -11.74127
      H1    -1.26688   -3.47321  -12.14826
       H    -5.54452   -0.98155  -10.25719
       O    -4.88018   -1.30272   -9.65467
      H1    -4.52402   -2.10558  -10.06464
       H    -5.26536   -3.29351  -14.56916
       O    -5.43790   -3.96569  -15.36979
      H1    -4.64054   -3.89780  -15.90323
       H     2.90540    1.60694  -15.41151
       O     2.39046    1.44538  -16.20833
      H1     2.96182    1.59907  -16.93810
       H     2.61048   -4.05512  -14.89269
       O     1.82444   -4.62139  -14.84301
      H1     1.28979   -4.05835  -15.43594
       H    -0.65970   -5.55844  -13.33069
       O    -0.46499   -4.62392  -13.15536
      H1     0.39101   -4.37963  -13.44044

