81
frame 9 | Written by MDAnalysis XYZWriter (release 2.4.3)
       H    11.84120    5.62907   -7.78748
       O    11.30709    5.18461   -7.09569
      H1    11.82470    5.40679   -6.28931
       H    12.90739   -1.96438   -9.16925
       O    12.05292   -1.48472   -8.92087
      H1    12.03799   -0.71688   -9.55618
       H    13.18811    0.92419   -6.85167
       O    13.53329    0.51284   -7.66142
      H1    12.96402   -0.20027   -7.72605
       H    14.16228    3.53859   -5.39986
       O    13.87072    3.46777   -4.51420
      H1    13.31581    4.31234   -4.42093
       H    10.04562    1.49620   -7.47516
       O     9.90177    0.74873   -8.05495
      H1     9.12031    1.06192   -8.60374
       H    16.74175   -0.82050   -3.84648
       O    16.78140   -0.04327   -3.27050
      H1    15.92506    0.04160   -2.77201
       H    14.30077   -2.51220  -10.68999
       O    14.38071   -2.63485   -9.71941
      H1    14.20475   -3.56614   -9.59697
       H    12.65496    0.15619   -2.23642
       O    11.75914    0.07947   -2.59982
      H1    11.54924   -0.84520   -2.65575
       H    17.17586   -2.26026   -8.47354
       O    16.96721   -1.53749   -9.11454
      H1    16.04818   -1.80213   -9.32607
       H    12.93267    2.02563   -4.60871
       O    12.47206    1.19491   -4.92884
      H1    12.23506    0.73132   -4.11655
       H    12.90828    1.62652  -14.11135
       O    13.01082    1.29764  -13.19775
      H1    13.04262    2.14403  -12.66303
       H    13.32390   -5.64953   -8.19189
       O    14.18171   -5.06975   -8.25541
      H1    14.00218   -4.46038   -7.51046
       H    13.40860   -2.14929   -5.73077
       O    14.00124   -2.20191   -6.57588
      H1    13.99002   -1.28497   -6.87574
       H    17.04179    3.80868  -10.16439
       O    17.65030    3.05383  -10.04121
      H1    17.36132    2.76543   -9.18475
       H     9.41170   -2.11419  -10.00161
       O     9.45257   -2.31648  -10.92445
      H1     8.56530   -2.25362  -11.30970
       H     9.54826   -0.86076   -7.55705
       O     9.31917   -1.80859   -7.49705
      H1     8.91588   -1.88399   -6.63581
       H    11.50296   -4.27702   -7.04206
       O    11.23499   -4.12563   -7.96881
      H1    11.32604   -3.20894   -8.16046
       H    10.92296    2.24828   -5.43453
       O    10.43095    2.77281   -6.10790
      H1    11.04470    3.40383   -6.38443
       H    17.20346    1.28505   -5.96553
       O    17.14997    1.90822   -5.31127
      H1    16.54050    1.50624   -4.69333
       H    15.87548   -2.22529   -5.88787
       O    16.77251   -2.14697   -5.43407
      H1    16.89754   -2.94596   -4.91253
       H    14.78423    3.81285   -8.00366
       O    15.09139    3.68476   -7.07526
      H1    15.63739    2.90106   -7.00648
       H    14.86197    5.02904   -9.89688
       O    15.71972    5.42940   -9.94588
      H1    15.82647    5.92182  -10.75394
       H    16.43516    0.13378   -8.37893
       O    16.20082    0.99272   -8.07895
      H1    15.21494    0.94776   -8.10142
       H    14.05984   -1.84941  -13.54578
       O    14.17146   -1.68449  -12.61033
      H1    14.31004   -0.77944  -12.55402
       H    11.56742    0.94603  -11.55134
       O    11.61687    0.83709  -10.60669
      H1    10.90989    1.45680  -10.35293
       H    13.32677    3.40345  -10.44017
       O    13.66884    3.44844   -9.51528
      H1    13.40120    2.57499   -9.18663
       H    17.56625   -2.98993   -6.77814
       O    17.93715   -3.39878   -7.61077
      H1    17.52316   -4.23275   -7.71093

