81
frame 0 | Written by MDAnalysis XYZWriter (release 2.4.3)
       H    18.18108    4.24168   -8.04821
       O    18.96182    3.74577   -7.77933
      H1    18.67435    2.96020   -7.33348
       H    19.53164    5.29914  -10.66819
       O    18.90454    6.01078  -10.50802
      H1    18.23467    5.95446  -11.19839
       H    15.67551   -2.15429  -15.07427
       O    16.02542   -1.78536  -14.30695
      H1    16.95650   -1.76890  -14.41359
       H    14.36351    1.84676   -9.77855
       O    14.09597    1.65666   -8.85351
      H1    13.99052    0.70407   -8.98749
       H    16.32701   -2.71291  -12.87710
       O    16.26267   -3.42093  -12.23736
      H1    15.73080   -4.10710  -12.65310
       H    18.86510   -0.56446  -14.45675
       O    18.76546   -1.30259  -13.82248
      H1    19.59417   -1.85862  -13.84110
       H    14.23745   -0.59376  -10.78689
       O    13.80190   -0.97113   -9.97859
      H1    12.81664   -1.22619  -10.11840
       H    19.68105   -7.48063  -12.52320
       O    19.88889   -6.78213  -13.18490
      H1    19.39778   -6.00193  -12.88052
       H    15.56395   -6.51611   -8.78340
       O    15.38361   -5.77558   -8.20674
      H1    15.19569   -5.05755   -8.80215
       H    19.58613   -4.11589  -11.75694
       O    18.82893   -4.61533  -12.05184
      H1    18.11716   -4.00286  -11.96819
       H    17.02652    3.46945  -11.39905
       O    16.20857    3.75527  -10.89454
      H1    16.06544    4.70153  -11.07663
       H    17.10634   -5.03697   -7.54395
       O    18.07142   -4.81724   -7.64222
      H1    18.58490   -5.14107   -6.86195
       H    17.12464   -1.62536   -8.41173
       O    16.73664   -1.46838   -9.30461
      H1    16.18365   -2.24462   -9.50601
       H    16.09604   -2.31944   -5.39771
       O    16.94893   -2.37144   -4.95146
      H1    16.83090   -2.66592   -4.05519
       H    14.81376    2.74567  -11.75617
       O    14.07547    2.08715  -11.70660
      H1    13.28080    2.57321  -11.98977
       H    14.61546    3.47778  -14.01319
       O    15.46826    3.17979  -14.36119
      H1    15.28276    2.53721  -15.04734
       H    14.56889   -3.27694   -5.63699
       O    14.68094   -2.77259   -6.42001
      H1    13.76424   -2.53464   -6.61119
       H    17.64489    1.49691   -5.75223
       O    18.53886    1.83630   -5.89316
      H1    19.04910    1.19273   -5.34725
       H    18.32385   -5.52006   -8.95069
       O    18.52454   -6.23552   -9.72829
      H1    18.56656   -5.61003  -10.49793
       H    14.48796    3.69684   -6.79066
       O    15.37038    3.51809   -6.51618
      H1    15.37506    2.59872   -6.39245
       H    16.18113    4.25828   -7.91562
       O    16.64794    4.84621   -8.47756
      H1    16.55971    4.40834   -9.32941
       H    15.83884    0.01624   -7.13534
       O    15.96808    0.58276   -6.36022
      H1    15.39180    0.14884   -5.65930
       H    18.51024    0.06611  -11.68210
       O    18.84957    0.07227  -10.77550
      H1    18.12748   -0.40119  -10.29430
       H    14.89447   -0.61382  -13.41683
       O    14.20970   -0.35278  -12.77267
      H1    14.40033    0.58002  -12.49489
       H    18.22721   -2.34944   -6.36706
       O    18.71290   -2.25242   -7.18890
      H1    18.56130   -3.18827   -7.57822
       H    15.21414   -3.42748  -10.74813
       O    15.00713   -3.29946   -9.80370
      H1    14.41390   -2.53518   -9.86406
       H    17.47846    3.16075  -13.36452
       O    18.26066    3.09086  -12.73727
      H1    18.98711    3.36080  -13.27362

