81
frame 9 | Written by MDAnalysis XYZWriter (release 2.4.3)
       H   -16.47892   -6.13625    9.29641
       O   -16.84971   -6.79357    8.66960
      H1   -17.29269   -6.27947    8.02167
       H   -12.79541   -7.65600    9.22935
       O   -13.59281   -8.21073    9.45277
      H1   -14.39921   -7.70549    9.25546
       H   -15.74369   -3.42815   12.55650
       O   -15.75577   -2.75637   11.86939
      H1   -16.59725   -2.32981   12.04380
       H   -17.57256   -7.68829   10.01200
       O   -18.01064   -7.80415   10.89084
      H1   -18.91868   -7.71783   10.54058
       H   -11.89819   -5.13494    3.25461
       O   -12.37286   -4.83168    4.03994
      H1   -11.86974   -5.11205    4.85682
       H   -10.21534   -5.32614    8.27350
       O    -9.63933   -4.65202    7.92645
      H1    -9.28956   -4.98876    7.10917
       H   -17.49630   -9.99667    8.13282
       O   -16.91587   -9.34239    7.68663
      H1   -17.05179   -8.43221    8.06937
       H   -15.05340   -4.91198   10.94053
       O   -14.82981   -5.30025   10.06446
      H1   -14.16921   -4.67559    9.69722
       H   -14.46956   -1.52552    4.98978
       O   -14.18118   -0.68197    5.28873
      H1   -14.92039   -0.10644    4.97754
       H   -10.68911   -3.57795    7.34934
       O   -11.36760   -2.92580    6.96845
      H1   -11.10205   -2.67251    6.06934
       H   -12.73003   -0.87640   11.57476
       O   -12.78416   -1.58696   10.89801
      H1   -13.64645   -1.47252   10.48721
       H   -15.81461   -3.57311    2.69828
       O   -16.58385   -3.47049    2.16644
      H1   -16.55276   -4.16637    1.48038
       H   -13.90113   -3.97894    4.03209
       O   -14.68892   -3.40517    4.13658
      H1   -15.15202   -3.76015    4.91402
       H   -19.90991   -2.33313    9.59908
       O   -19.43654   -2.55299    8.82170
      H1   -19.76933   -1.96014    8.12507
       H   -11.96064   -0.49430    7.81122
       O   -12.83267   -0.02484    7.71891
      H1   -13.20180   -0.22890    6.89436
       H   -14.52462   -7.83951    6.07977
       O   -13.77936   -8.36314    6.45222
      H1   -13.88929   -8.33699    7.37793
       H   -14.10629   -0.46956    8.66187
       O   -14.93677   -0.82724    9.08971
      H1   -15.08043   -1.58707    8.52948
       H   -10.88947   -7.09065    6.30852
       O   -11.70160   -6.50194    6.29671
      H1   -12.38405   -7.17441    6.20148
       H   -19.01688   -4.37464    4.47365
       O   -18.97311   -3.86944    3.65583
      H1   -18.16683   -4.16636    3.16058
       H   -17.24397   -1.15502    5.60125
       O   -17.68508   -1.97338    5.93759
      H1   -17.70271   -2.41005    5.09552
       H   -19.95455   -5.95228    9.07552
       O   -19.52715   -5.35098    8.47282
      H1   -19.39135   -4.46995    8.85814
       H   -11.74062   -6.43593    7.92542
       O   -11.47481   -6.37127    8.83548
      H1   -12.18663   -5.76825    9.15832
       H   -15.50297   -6.19024    5.68476
       O   -15.78765   -6.91229    5.14052
      H1   -15.26410   -7.02925    4.35335
       H   -13.75296   -4.64970    6.82801
       O   -14.71036   -4.92745    6.70382
      H1   -15.23312   -4.44137    7.32787
       H   -17.71096   -6.69107    5.16628
       O   -18.56163   -6.29725    5.42736
      H1   -19.18404   -6.57894    4.74906
       H   -17.23122   -3.23519    8.43364
       O   -16.29765   -3.51709    8.47680
      H1   -16.17093   -3.94741    9.30660
       H   -12.55746   -3.23058    9.88513
       O   -12.65522   -3.83954    9.14598
      H1   -12.09884   -3.47154    8.47452

