81
frame 9 | Written by MDAnalysis XYZWriter (release 2.4.3)
       H    -8.12598  -16.31634  -10.43805
       O    -8.72149  -17.02781  -10.73594
      H1    -8.16756  -17.58765  -11.30276
       H    -4.38341  -16.45297  -11.07772
       O    -5.25535  -16.22249  -11.34124
      H1    -5.73326  -15.68958  -10.67071
       H    -9.12163  -16.73209   -4.38292
       O    -8.85311  -16.49600   -5.24413
      H1    -8.31614  -17.25737   -5.47902
       H   -10.96557  -16.52263  -12.24876
       O   -11.04756  -16.25253  -11.29751
      H1   -10.16209  -16.53844  -10.96476
       H    -4.55684  -17.90767   -3.63279
       O    -3.71987  -18.17190   -4.05384
      H1    -3.44315  -17.34260   -4.38973
       H    -9.50167  -15.23976   -8.19892
       O    -9.05351  -14.42128   -8.02338
      H1    -8.84746  -14.19700   -7.06199
       H    -2.26210  -14.69788   -4.01260
       O    -2.08773  -13.93801   -3.49115
      H1    -2.91172  -13.43016   -3.59930
       H    -7.08345  -19.08827   -5.32414
       O    -6.73955  -18.19448   -5.45148
      H1    -6.39688  -18.24948   -6.34513
       H    -5.39135  -17.10878   -8.21338
       O    -5.94575  -17.91332   -8.23602
      H1    -6.87410  -17.80280   -8.56354
       H    -1.98993  -17.12277  -11.74017
       O    -2.69001  -17.55266  -11.17445
      H1    -2.39426  -17.54772  -10.22523
       H    -4.39424  -11.51675   -4.03677
       O    -4.51009  -12.47647   -4.03454
      H1    -4.76977  -12.67420   -4.98164
       H    -9.40405  -18.84109   -9.81337
       O    -9.00677  -19.27508   -9.03182
      H1    -9.61475  -20.04507   -8.87362
       H    -6.84924  -19.32833  -11.18783
       O    -7.52540  -19.09127  -11.91779
      H1    -8.18835  -19.75042  -11.90421
       H    -8.57834  -14.54183   -5.05625
       O    -8.38884  -13.76469   -5.50608
      H1    -9.22093  -13.23792   -5.52650
       H    -3.67679  -15.14562   -7.83786
       O    -4.34616  -15.80504   -7.51373
      H1    -5.02568  -15.20953   -7.28018
       H    -6.45957  -17.20652   -3.91676
       O    -6.03593  -16.95315   -3.10066
      H1    -6.17792  -16.04549   -2.94804
       H    -3.05391  -15.97992   -5.80591
       O    -2.41561  -16.09233   -5.12563
      H1    -1.69386  -16.66487   -5.46734
       H    -6.29106  -13.52271   -3.46011
       O    -6.51114  -14.15096   -2.76829
      H1    -5.65892  -14.28471   -2.23150
       H    -2.25658  -18.18986   -2.81572
       O    -1.53694  -18.36083   -2.12949
      H1    -2.02329  -18.94666   -1.48080
       H    -7.51235  -14.16402  -10.57520
       O    -7.28297  -14.84575   -9.99302
      H1    -7.78971  -14.66124   -9.18672
       H   -11.36328  -17.15813   -7.22972
       O   -10.68067  -16.54642   -7.34847
      H1   -10.20142  -16.61173   -6.53858
       H     0.45243  -17.50819   -6.03063
       O    -0.49126  -17.84748   -6.13086
      H1    -0.57651  -17.77041   -7.07604
       H   -12.90323  -18.00232   -3.57547
       O   -12.18076  -17.63597   -4.15611
      H1   -12.62122  -17.10155   -4.79501
       H    -6.49365  -18.93703   -0.23747
       O    -6.87069  -18.11684   -0.58062
      H1    -6.50788  -18.00774   -1.48422
       H    -6.58739  -13.82402   -6.16133
       O    -5.75097  -13.58987   -6.57224
      H1    -6.00477  -12.89967   -7.20978
       H   -11.60139  -15.94954   -1.92792
       O   -11.06929  -15.72972   -2.69389
      H1   -11.37780  -16.53308   -3.21719
       H    -5.02591  -18.63083  -11.21410
       O    -5.15235  -19.20491  -10.45932
      H1    -5.45406  -18.68886   -9.71632

