81
frame 0 | Written by MDAnalysis XYZWriter (release 2.4.3)
       H   -10.78352  -16.02988   -7.10330
       O   -10.37781  -15.70651   -7.90041
      H1   -10.03279  -16.51610   -8.32587
       H    -9.49369  -18.97306   -7.33927
       O    -9.47133  -19.07114   -6.41392
      H1   -10.34799  -18.89963   -6.04145
       H    -9.92012  -16.05290   -3.06312
       O    -9.60970  -15.58645   -3.84832
      H1    -8.90070  -16.17044   -4.20607
       H   -12.14074  -18.29484   -5.12734
       O   -11.51647  -18.97353   -4.80937
      H1   -12.03276  -19.79228   -4.83177
       H   -13.24358  -17.49583   -9.66773
       O   -13.87211  -17.19930   -9.02188
      H1   -13.63814  -16.29078   -8.83720
       H   -16.86058  -15.24251   -7.08080
       O   -16.74241  -15.21668   -8.02386
      H1   -16.04836  -14.56871   -8.22039
       H    -9.87110  -14.09649   -7.46125
       O    -9.35316  -13.29489   -7.28289
      H1    -8.64563  -13.65924   -6.70568
       H   -16.40323  -15.14602   -4.77302
       O   -16.54279  -15.95881   -5.37503
      H1   -17.42029  -16.29010   -5.20106
       H    -8.33660  -18.08296   -5.49455
       O    -7.70287  -17.34415   -5.27395
      H1    -7.40269  -17.03925   -6.16995
       H    -9.44886  -18.44099   -1.36062
       O    -9.51351  -18.43297   -2.33442
      H1   -10.39163  -18.19418   -2.57750
       H    -9.48549  -13.59056   -2.94520
       O    -9.32060  -13.17394   -2.06831
      H1   -10.17813  -13.17688   -1.52256
       H    -8.88988  -12.35468   -5.51289
       O    -9.25189  -11.80184   -4.81527
      H1    -8.49381  -11.63607   -4.27129
       H   -11.74080  -11.88384  -11.29198
       O   -11.58319  -12.04929  -10.32017
      H1   -11.40373  -12.99179  -10.17499
       H   -14.62309  -18.92965   -7.86835
       O   -15.36758  -19.42999   -7.73593
      H1   -15.65042  -19.29818   -6.77817
       H   -15.62335  -11.24274   -5.19570
       O   -15.74637  -12.12910   -5.50832
      H1   -15.81651  -12.66430   -4.73247
       H   -10.80194  -12.27423   -3.85186
       O   -11.77160  -12.13140   -3.91480
      H1   -11.80203  -11.33885   -4.43620
       H   -12.57799  -15.03208   -5.54530
       O   -11.83352  -15.73843   -5.48862
      H1   -11.16427  -15.40112   -4.85837
       H   -12.71280  -11.69788   -8.85054
       O   -13.22835  -11.09167   -8.34161
      H1   -14.14856  -11.29090   -8.53597
       H   -15.26085  -18.50583   -4.46949
       O   -14.68408  -17.90202   -4.94449
      H1   -15.33664  -17.16535   -5.27789
       H   -15.56738  -12.60132   -8.96928
       O   -15.80412  -11.85297   -8.37388
      H1   -16.00642  -12.29818   -7.53234
       H   -14.17079  -14.36955   -9.47023
       O   -14.95958  -13.95125   -9.84562
      H1   -14.66193  -13.50767  -10.62841
       H   -12.39769  -17.27688   -2.10537
       O   -12.07197  -16.59666   -2.73602
      H1   -12.46193  -16.83458   -3.60961
       H   -15.10470  -13.96489   -3.25535
       O   -15.99833  -13.92989   -3.55156
      H1   -16.47527  -14.16788   -2.75650
       H   -10.53666  -10.71742   -5.65254
       O   -11.26641  -10.19747   -6.04393
      H1   -11.55494  -10.72827   -6.78626
       H   -11.95996  -14.99630   -8.40405
       O   -12.80221  -14.52483   -8.48239
      H1   -13.13548  -14.37562   -7.62076
       H   -12.93884  -13.33269   -2.79222
       O   -13.45946  -13.96491   -2.32518
      H1   -12.96206  -14.77776   -2.41053
       H   -14.13531  -12.95300   -5.49573
       O   -13.35894  -13.55517   -5.69809
      H1   -12.59400  -13.12492   -5.22527

