81
frame 9 | Written by MDAnalysis XYZWriter (release 2.4.3)
       H    -6.48891  -16.30484   10.14286
       O    -5.65399  -16.13474    9.62630
      H1    -5.21497  -16.99208    9.59339
       H   -12.08867  -13.29661   13.30271
       O   -12.28053  -14.12771   12.79252
      H1   -13.22778  -14.28473   12.89408
       H    -6.23321  -16.69669   13.06646
       O    -6.19450  -15.73498   12.88668
      H1    -5.28079  -15.66490   12.58001
       H    -7.21230  -16.82161   19.22324
       O    -7.79353  -16.05506   19.11569
      H1    -7.65633  -15.70888   18.16996
       H   -11.81615  -16.06316   19.76474
       O   -11.56538  -15.68481   18.90836
      H1   -10.99238  -14.91409   19.09794
       H    -8.77500  -14.28245   16.70348
       O    -7.92529  -14.70847   16.72067
      H1    -7.42568  -14.28318   16.08722
       H    -6.18655  -18.46061   14.30041
       O    -6.83126  -18.14255   13.66087
      H1    -7.29363  -18.87880   13.17099
       H    -7.51879  -12.76732   14.73572
       O    -6.78190  -13.41148   14.78475
      H1    -6.90738  -14.05526   14.04784
       H    -3.71433  -14.63829   17.76154
       O    -4.27683  -15.29662   18.20561
      H1    -4.45291  -14.92578   19.06082
       H   -12.42710  -15.28420   15.96853
       O   -13.03729  -15.11366   16.68755
      H1   -12.48533  -15.22754   17.46915
       H    -4.35123  -15.46854   10.63402
       O    -3.97287  -15.26858   11.53110
      H1    -3.13961  -15.71892   11.47673
       H   -11.74252  -17.10381   11.47588
       O   -11.55802  -17.81511   12.06487
      H1   -11.54827  -17.36729   12.90455
       H    -8.34263  -16.04196   15.44540
       O    -8.91214  -16.65894   14.91820
      H1    -8.27515  -17.32385   14.52172
       H    -8.84033  -16.08196   10.14659
       O    -8.94351  -17.06078   10.14620
      H1    -8.58888  -17.30228    9.22174
       H    -3.72148  -19.06306   17.97869
       O    -4.02195  -18.95587   18.92185
      H1    -3.34832  -18.30518   19.19102
       H    -4.79644  -18.37923   15.69060
       O    -4.93662  -19.28984   15.40291
      H1    -4.09353  -19.77252   15.51883
       H   -10.79822  -12.77495   15.48542
       O   -10.07411  -12.83810   16.12955
      H1    -9.95972  -11.97103   16.48630
       H   -11.45140  -15.51905   13.52812
       O   -11.39320  -16.19935   14.22621
      H1   -10.36823  -16.33991   14.28056
       H   -10.69361  -17.03538   17.95560
       O   -10.30852  -17.72307   17.33329
      H1    -9.58678  -17.24669   16.89518
       H    -9.31906  -13.73187   10.65648
       O    -8.50526  -14.19371   10.75323
      H1    -8.07911  -14.03106   11.57963
       H   -13.39989  -17.21416   16.00611
       O   -12.86758  -18.00905   16.22425
      H1   -12.00401  -17.73038   16.40040
       H    -8.10242  -19.83413   11.10833
       O    -8.75122  -19.37877   11.63982
      H1    -8.87530  -18.46275   11.25638
       H    -5.37825  -12.17075   17.76544
       O    -5.99094  -11.96435   17.03543
      H1    -5.97621  -12.80339   16.50852
       H    -5.82089  -18.66133   19.11406
       O    -6.77660  -18.53677   19.22555
      H1    -7.22417  -18.68204   18.37945
       H   -10.65597  -16.89242    9.60304
       O   -11.39605  -16.29474    9.42953
      H1   -12.24322  -16.75160    9.39598
       H    -5.14132  -16.47193   16.93125
       O    -5.34383  -16.58154   15.97907
      H1    -4.76197  -15.94349   15.55761
       H   -12.93785  -19.20020   14.40177
       O   -12.78573  -19.58365   13.52376
      H1   -12.35685  -18.82234   12.98837

