81
frame 9 | Written by MDAnalysis XYZWriter (release 2.4.3)
       H    13.24132    5.24002   15.63886
       O    13.01682    4.55939   16.23282
      H1    12.66434    3.91324   15.64430
       H    11.41953    6.57763   17.99889
       O    11.48913    5.66949   18.31798
      H1    11.99949    5.14598   17.62534
       H     6.86616    9.74833   10.69552
       O     7.08604    8.78844   10.51427
      H1     6.91875    8.70120    9.55588
       H     5.55101    2.38803   11.31386
       O     5.09419    1.65798   11.71348
      H1     5.35219    1.76002   12.65638
       H     9.64252    4.89503   17.49788
       O     9.22696    4.06083   17.28540
      H1     9.55324    3.35801   17.91850
       H     8.07193    2.86519   16.46924
       O     7.58295    2.03709   16.44393
      H1     6.82905    2.18746   15.89579
       H    10.74096    9.46301   11.30462
       O    11.06388   10.34781   11.57889
      H1    11.33314   10.79551   10.78918
       H    11.03340    3.16798   14.02487
       O    11.70290    2.66076   14.53243
      H1    12.42764    2.50274   13.97579
       H    14.46695    1.98533   13.30378
       O    13.79313    2.58114   12.90429
      H1    13.45851    2.16170   12.10898
       H     9.30001    6.79243   15.89394
       O    10.25190    6.80246   15.68561
      H1    10.20905    6.23993   14.89281
       H     7.08141    7.35699   16.06537
       O     7.55607    6.60994   15.72786
      H1     6.94019    5.96270   15.34373
       H     5.34236    6.93000   12.99559
       O     6.06676    6.73847   12.37175
      H1     6.76572    7.41490   12.46461
       H     9.49337   -0.08270   12.98565
       O     9.69236   -0.52891   12.15492
      H1     8.81260   -0.55119   11.67112
       H     6.14425    0.90442   14.15990
       O     5.71722    1.78319   14.30641
      H1     4.96442    1.61822   14.87771
       H     6.12542    3.64629   13.84116
       O     6.78190    4.36659   13.88877
      H1     6.47298    5.12201   13.32928
       H     9.81725    7.23408   10.21212
       O     9.74388    8.19966   10.11286
      H1     8.76680    8.33703   10.10392
       H    12.63656    5.60889   12.81346
       O    13.18360    5.26868   12.12112
      H1    13.46943    4.43848   12.49898
       H    11.11813    3.37479    8.66660
       O    11.06245    3.39961    9.62144
      H1    10.39328    2.72783    9.72237
       H     9.45102    5.13523   13.07829
       O     9.66563    4.86611   13.95904
      H1     8.84543    4.52038   14.30702
       H    11.74885    7.09661   15.04620
       O    12.40381    6.76476   14.37154
      H1    12.75488    7.60389   14.06707
       H    10.35368    4.76270   10.62474
       O    10.44536    5.52166   11.19744
      H1    11.41114    5.69501   11.23510
       H    12.43170    2.23281    9.70380
       O    13.07302    1.52242    9.71508
      H1    12.69795    0.71539   10.06851
       H     7.51175    9.92957   14.40177
       O     6.69771    9.66250   13.95143
      H1     6.67943   10.30264   13.20224
       H     9.26193    0.69975   15.19220
       O     9.99629    0.59988   14.59267
      H1    10.56204    1.37881   14.72965
       H     8.14232    2.02368   10.02165
       O     8.92801    1.51818    9.90928
      H1     9.13746    1.14777   10.76414
       H     9.96636    8.81270   15.37872
       O     9.59814    9.60900   15.83953
      H1     9.56926    9.37694   16.76338
       H     6.66504    4.21884    9.92148
       O     6.91239    3.53408   10.55863
      H1     7.11678    4.04659   11.32194

