81
frame 9 | Written by MDAnalysis XYZWriter (release 2.4.3)
       H    10.46757   -2.71265   -2.72073
       O    11.21645   -2.43023   -3.21053
      H1    11.98416   -2.91619   -2.74685
       H    18.00480   -5.42776   -3.62861
       O    18.71714   -6.08910   -3.81958
      H1    19.17183   -6.21123   -3.01720
       H    13.98749   -4.32550   -2.85953
       O    13.55869   -3.70963   -2.26856
      H1    13.30416   -4.33953   -1.56387
       H    16.74175   -0.82050   -3.84648
       O    16.78140   -0.04327   -3.27050
      H1    15.92506    0.04160   -2.77201
       H    12.19589   -5.88842   -0.40874
       O    12.58611   -5.04576   -0.14876
      H1    13.40993   -5.19216    0.28629
       H    14.94165    0.54990   -0.87509
       O    14.59805    0.68194   -1.77155
      H1    14.99101    1.54623   -2.06058
       H    12.14889   -1.76236    1.29757
       O    11.48703   -2.26125    0.80975
      H1    11.33466   -3.08407    1.28618
       H    14.09106   -8.65232   -1.79206
       O    14.64239   -8.38484   -2.54355
      H1    15.27650   -7.75178   -2.30562
       H    12.18611   -8.07490   -0.95260
       O    11.53133   -7.35473   -1.10892
      H1    11.53485   -7.15618   -2.03526
       H    16.81726   -3.36493    1.23733
       O    16.11063   -3.06626    0.68083
      H1    16.48144   -3.10947   -0.19555
       H    12.01187   -9.87502   -3.43003
       O    12.48179   -9.29407   -4.00574
      H1    13.30778   -9.11257   -3.48574
       H    12.65496    0.15619   -2.23642
       O    11.75914    0.07947   -2.59982
      H1    11.54924   -0.84520   -2.65575
       H    16.63877   -3.84184   -2.89998
       O    16.75217   -4.22467   -3.73227
      H1    15.95574   -4.73564   -3.97479
       H    14.95605   -6.85828   -5.46953
       O    15.35592   -7.58812   -5.97579
      H1    15.87891   -6.99129   -6.53191
       H    11.59000   -4.90504    1.43015
       O    11.04450   -4.84713    2.20791
      H1    10.56906   -5.69276    2.35072
       H    18.15246   -2.66732   -2.12071
       O    17.30361   -2.41331   -1.80302
      H1    17.12121   -1.46011   -1.80640
       H    13.32390   -5.64953   -8.19189
       O    14.18171   -5.06975   -8.25541
      H1    14.00218   -4.46038   -7.51046
       H    15.43708   -5.87682    0.27695
       O    15.12578   -5.61984    1.16730
      H1    15.64452   -4.83679    1.35734
       H    13.40860   -2.14929   -5.73077
       O    14.00124   -2.20191   -6.57588
      H1    13.99002   -1.28497   -6.87574
       H    15.88472   -0.89296    0.60128
       O    16.15285   -0.01104    0.43679
      H1    15.83922    0.45821    1.20196
       H    11.50296   -4.27702   -7.04206
       O    11.23499   -4.12563   -7.96881
      H1    11.32604   -3.20894   -8.16046
       H    14.34360   -6.58468   -3.43648
       O    14.27151   -5.80952   -3.98113
      H1    13.32135   -5.61694   -4.12270
       H    15.87548   -2.22529   -5.88787
       O    16.77251   -2.14697   -5.43407
      H1    16.89754   -2.94596   -4.91253
       H    17.37354   -5.94561   -1.20596
       O    16.55991   -6.39271   -1.00540
      H1    16.83901   -7.19694   -0.43911
       H    11.36800   -3.63499   -4.75264
       O    11.80287   -4.38318   -5.13881
      H1    11.04079   -5.04920   -5.26780
       H    17.02350   -6.35789   -8.00826
       O    16.65895   -5.76883   -7.30404
      H1    15.86020   -5.42999   -7.70493
       H    11.57981   -7.80459   -4.15515
       O    11.24775   -6.96338   -3.75815
      H1    10.46416   -6.70892   -4.29298

