81
frame 9 | Written by MDAnalysis XYZWriter (release 2.4.3)
       H    17.48812    4.71738    6.11123
       O    17.18439    3.88565    5.68701
      H1    16.55573    3.57038    6.28910
       H    17.65393    6.73543    6.40303
       O    18.39208    6.13205    6.66186
      H1    19.07418    6.46007    6.06038
       H    16.00598    6.86443   10.64890
       O    15.10450    7.19343   10.89286
      H1    14.61356    6.43030   11.24011
       H    15.21627    2.96338    2.59367
       O    15.42013    3.65385    1.93298
      H1    16.32752    3.45217    1.62729
       H    15.29319    3.70880    8.86942
       O    15.42603    4.17480    8.00276
      H1    15.08881    5.09415    8.14876
       H    18.18743    7.33247   10.29069
       O    17.60805    6.79969    9.80808
      H1    18.05473    6.92854    8.95372
       H    13.97938    3.93582    5.40686
       O    14.07301    3.10772    5.91301
      H1    14.56670    3.50137    6.64329
       H    11.64994    2.41565    6.49825
       O    10.87330    2.84649    6.88668
      H1    10.13431    2.45511    6.47576
       H    12.62435    7.28262    6.11833
       O    13.05912    7.85191    5.45864
      H1    12.32584    8.44403    5.26466
       H    14.32164    1.99890    4.38367
       O    14.71652    1.59113    3.58892
      H1    13.88259    1.27767    3.11259
       H    19.22386    3.07240    8.57106
       O    19.49543    3.75696    7.96741
      H1    18.58241    4.02533    7.76374
       H    13.50334   -1.54337    8.28048
       O    13.67327   -1.98586    7.43993
      H1    13.98611   -1.30492    6.79562
       H    10.92978    5.77787    4.81693
       O    10.69289    5.57446    5.72642
      H1    11.23592    4.77501    6.00365
       H    16.27163    1.64853    9.93592
       O    15.59688    2.32336   10.09630
      H1    14.70008    1.98697    9.84918
       H    15.45308    7.02651    5.99626
       O    16.27697    7.31271    5.49912
      H1    16.06073    7.02384    4.61399
       H    17.82064   -1.04120    5.08352
       O    17.23116   -0.75074    4.40152
      H1    17.03649    0.17743    4.44973
       H    12.51426   -1.65462    3.41081
       O    12.95693   -0.96389    2.87930
      H1    12.58617   -0.15180    3.27238
       H    14.25702    5.11202    3.81272
       O    13.75077    5.39046    4.58604
      H1    13.50532    6.30903    4.39183
       H    16.52471    2.32427   11.73038
       O    16.94478    2.15978   12.56786
      H1    17.54155    1.40462   12.30219
       H    10.51993    7.85549    8.15431
       O    11.30678    7.46122    7.75196
      H1    11.12348    6.61559    7.36493
       H    16.44285    4.93796    2.86079
       O    17.27204    5.13331    3.29580
      H1    17.24213    4.63065    4.18462
       H    11.11813    3.37479    8.66660
       O    11.06245    3.39961    9.62144
      H1    10.39328    2.72783    9.72237
       H    15.74310   -1.02210    4.88759
       O    14.78489   -1.25033    4.95846
      H1    14.31213   -0.98341    4.17806
       H    11.78749    2.36973    2.77793
       O    12.03737    1.63249    3.34975
      H1    11.32484    1.56405    4.02001
       H    12.43170    2.23281    9.70380
       O    13.07302    1.52242    9.71508
      H1    12.69795    0.71539   10.06851
       H    14.12641    7.43777    8.04404
       O    14.99654    7.08915    8.12373
      H1    15.19628    7.07912    9.06944
       H    10.00865   -0.39105    6.52290
       O    10.27614    0.02921    5.72980
      H1    10.00049   -0.50778    5.00691

