81
frame 9 | Written by MDAnalysis XYZWriter (release 2.4.3)
       H     4.69938   12.07787   18.79711
       O     4.31364   12.46713   17.97781
      H1     5.08861   12.60767   17.42724
       H     3.87120   10.72498   17.45555
       O     3.88969    9.76043   17.33690
      H1     4.70830    9.39456   16.99113
       H     2.20976   15.97693   15.86666
       O     1.79391   15.64274   16.66058
      H1     2.45614   15.41279   17.26449
       H     3.57252    5.99982   18.63444
       O     2.79209    5.63766   19.12785
      H1     2.19708    6.43515   19.17867
       H    -0.62948   10.46324   18.59552
       O    -0.61925   11.42917   18.55808
      H1    -0.69626   11.57499   17.59220
       H    -4.19902   13.45586   19.38402
       O    -4.15422   12.95457   18.54978
      H1    -3.93640   12.03837   18.88884
       H     0.27141   15.22808   19.48795
       O    -0.09950   15.74317   18.77092
      H1     0.57479   15.98635   18.11683
       H     2.13158    8.50519   19.42750
       O     1.85121    8.17014   18.58566
      H1     2.44128    8.66466   17.98751
       H     3.94629   14.30496   18.71117
       O     3.71015   15.26345   18.69625
      H1     3.73931   15.50583   19.66061
       H     0.01345    8.38725   18.79150
       O    -0.86191    8.78616   18.95080
      H1    -1.08988    8.78509   19.91763
       H    -1.64907   10.29786   12.25105
       O    -2.45420    9.93175   12.61871
      H1    -2.58959   10.29534   13.51191
       H     2.34900    9.83514   14.56664
       O     2.17400    9.18599   15.25602
      H1     2.77947    9.47366   15.98278
       H    -0.43698   14.44255   17.14332
       O    -0.98114   14.12853   16.48101
      H1    -1.73904   14.74339   16.56292
       H    -0.40404   15.12782   14.97065
       O    -0.58135   15.84145   14.29449
      H1    -0.72582   15.28077   13.48937
       H    -1.16635   18.84980   18.26570
       O    -1.71818   18.03370   18.51080
      H1    -1.08475   17.31600   18.56977
       H    -1.73069    7.37605   17.51370
       O    -1.88744    7.34117   16.56044
      H1    -1.04326    7.58188   16.12829
       H     0.91743    6.52022   15.87582
       O     0.45423    6.98020   15.16495
      H1     0.91653    7.79863   15.05460
       H     1.51920   12.38405   13.48285
       O     0.69063   12.89125   13.26730
      H1     0.22979   12.38358   12.60275
       H    -3.48963   11.30245   15.12893
       O    -2.95609   10.47323   15.19130
      H1    -2.06599   10.73489   15.50311
       H    -2.46255   10.70223   18.97118
       O    -3.33957   10.52275   19.35849
      H1    -3.47218    9.60442   18.99518
       H    -3.96704   13.43250   15.16959
       O    -4.46076   12.70513   14.84413
      H1    -5.08134   12.57859   15.58353
       H     0.35451   10.72570   15.55190
       O    -0.42174   11.24773   15.77826
      H1    -0.31767   12.12523   15.44819
       H    -2.90303   16.09346   14.51780
       O    -3.56081   15.92726   15.19635
      H1    -4.36373   15.90757   14.65353
       H     3.70944   10.97134   13.10942
       O     3.11889   11.39245   13.78025
      H1     3.68397   12.08667   14.21479
       H    -5.57846   12.46011   17.44615
       O    -6.26256   12.04625   16.87313
      H1    -7.00931   12.66461   16.87679
       H    -4.44005    9.28601   15.97813
       O    -4.40835    8.36833   16.11639
      H1    -3.47065    8.10255   16.28717
       H    -4.78976    8.05126   18.33396
       O    -4.05091    7.85273   18.93546
      H1    -4.23618    8.24089   19.78041

