81
frame 9 | Written by MDAnalysis XYZWriter (release 2.4.3)
       H    -8.12598  -16.31634  -10.43805
       O    -8.72149  -17.02781  -10.73594
      H1    -8.16756  -17.58765  -11.30276
       H    -4.38341  -16.45297  -11.07772
       O    -5.25535  -16.22249  -11.34124
      H1    -5.73326  -15.68958  -10.67071
       H   -11.48319  -14.58533  -17.61248
       O   -11.97972  -13.83476  -17.25333
      H1   -11.30578  -13.24730  -16.95231
       H    -7.71316  -16.21224  -15.06945
       O    -8.52404  -16.07734  -14.50301
      H1    -8.43330  -16.46186  -13.61222
       H    -4.46426  -14.04627  -14.04575
       O    -4.93484  -13.72976  -13.22915
      H1    -4.73024  -14.38927  -12.58560
       H    -7.96866  -10.28413  -10.61058
       O    -7.56269  -10.52653  -11.43940
      H1    -6.65724  -10.19979  -11.45996
       H   -10.96557  -16.52263  -12.24876
       O   -11.04756  -16.25253  -11.29751
      H1   -10.16209  -16.53844  -10.96476
       H   -11.49040   -9.82338  -13.40959
       O   -11.86040  -10.29239  -14.19408
      H1   -11.09670  -10.64448  -14.72879
       H    -4.95400  -17.69068  -14.45862
       O    -5.02730  -16.78602  -14.15572
      H1    -4.96402  -16.87044  -13.20404
       H    -9.94748  -13.36554  -12.20635
       O   -10.36182  -13.58566  -11.38883
      H1   -10.53454  -14.52637  -11.45233
       H    -9.17346  -14.32335  -14.26272
       O    -9.34499  -13.40673  -14.04350
      H1    -8.64813  -13.19439  -13.40394
       H   -10.20487  -12.11601   -9.85729
       O    -9.52666  -11.89957   -9.19009
      H1    -9.24587  -12.75978   -8.91441
       H   -13.26323  -15.82874  -15.13281
       O   -12.84927  -14.96577  -14.91950
      H1   -12.50503  -14.66670  -15.75093
       H    -6.28402  -10.84307  -16.62692
       O    -5.63245  -10.95338  -15.90753
      H1    -6.07548  -10.69375  -15.11997
       H    -6.48331  -16.83073  -16.61659
       O    -6.43861  -15.90304  -16.38327
      H1    -5.91907  -15.99261  -15.59453
       H   -10.06156  -12.36957  -15.30250
       O   -10.38659  -11.80686  -16.01423
      H1    -9.54170  -11.60486  -16.39754
       H    -6.62908  -13.02779  -12.85888
       O    -7.40450  -13.00644  -12.33470
      H1    -7.40366  -12.25008  -11.73787
       H    -9.13782  -10.03956  -12.55341
       O    -9.92698   -9.46870  -12.35431
      H1    -9.48982   -8.60593  -12.18578
       H    -4.56782  -13.07469  -16.71022
       O    -4.12869  -13.34522  -15.87710
      H1    -3.74361  -12.54734  -15.59305
       H   -12.47589  -11.85822  -13.77095
       O   -12.94864  -12.63541  -13.37032
      H1   -12.87455  -13.36987  -14.00784
       H    -3.52164  -12.63352  -12.78634
       O    -2.61467  -12.31296  -12.81442
      H1    -2.22624  -12.73147  -11.99523
       H    -7.51235  -14.16402  -10.57520
       O    -7.28297  -14.84575   -9.99302
      H1    -7.78971  -14.66124   -9.18672
       H    -8.34619  -15.72398  -18.54129
       O    -8.87577  -15.57724  -17.76104
      H1    -8.23634  -15.51746  -17.01121
       H   -11.86699  -16.18867  -14.01413
       O   -11.27846  -16.94535  -13.95679
      H1   -10.51510  -16.82204  -14.50159
       H    -7.02338  -12.95810  -18.35131
       O    -7.54237  -12.23184  -18.03756
      H1    -7.54389  -11.49725  -18.66742
       H    -7.17941  -10.76967   -7.74504
       O    -6.78992  -11.50216   -8.28624
      H1    -7.48433  -11.55788   -8.93331
       H   -12.98046  -13.89670  -11.81905
       O   -13.49316  -14.52679  -11.18844
      H1   -12.86119  -14.93189  -10.56676

