81
frame 9 | Written by MDAnalysis XYZWriter (release 2.4.3)
       H   -16.23476    5.35989    7.24994
       O   -15.62857    5.12177    6.49833
      H1   -14.69510    4.99842    6.82446
       H   -16.57512    1.20208    5.46721
       O   -16.48898    0.50038    4.78409
      H1   -16.58529    0.97495    3.93163
       H   -16.71417    3.58879    6.44042
       O   -17.11222    2.77016    6.87067
      H1   -18.03001    2.96111    7.04901
       H   -13.27521    1.98543    9.50613
       O   -12.60917    2.41759    8.90031
      H1   -12.43081    1.67021    8.29655
       H   -18.03662    0.52202    2.41660
       O   -17.25413    1.06405    2.21703
      H1   -17.63166    1.95886    2.06324
       H   -16.75490    5.73445    3.32971
       O   -16.77121    4.95088    3.86544
      H1   -16.39302    5.28001    4.67774
       H   -11.24003    0.48878    3.24469
       O   -10.86930    1.00570    2.51744
      H1   -10.59721    0.34688    1.86735
       H   -13.60991    0.45675    1.23780
       O   -13.64638   -0.37305    1.66065
      H1   -14.55691   -0.62745    1.61704
       H   -14.85490    1.34337   11.44352
       O   -14.59710    2.10540   10.96575
      H1   -15.20883    2.05798   10.20889
       H   -12.09556   -0.50478    5.02914
       O   -11.18321   -0.56865    4.71920
      H1   -10.67048   -0.14296    5.45903
       H   -19.45456   -1.49765    3.25205
       O   -18.93533   -1.20784    2.45978
      H1   -18.22308   -1.88459    2.36969
       H   -16.96542    1.75625    8.42176
       O   -16.73645    1.39165    9.32315
      H1   -16.15164    0.60277    9.13247
       H   -14.46956   -1.52552    4.98978
       O   -14.18118   -0.68197    5.28873
      H1   -14.92039   -0.10644    4.97754
       H   -15.81461   -3.57311    2.69828
       O   -16.58385   -3.47049    2.16644
      H1   -16.55276   -4.16637    1.48038
       H   -15.58511    3.79090    0.75456
       O   -15.70079    4.69987    0.45506
      H1   -15.16932    4.79010   -0.34707
       H   -13.90113   -3.97894    4.03209
       O   -14.68892   -3.40517    4.13658
      H1   -15.15202   -3.76015    4.91402
       H   -19.90991   -2.33313    9.59908
       O   -19.43654   -2.55299    8.82170
      H1   -19.76933   -1.96014    8.12507
       H   -11.96064   -0.49430    7.81122
       O   -12.83267   -0.02484    7.71891
      H1   -13.20180   -0.22890    6.89436
       H   -14.10629   -0.46956    8.66187
       O   -14.93677   -0.82724    9.08971
      H1   -15.08043   -1.58707    8.52948
       H   -19.01688   -4.37464    4.47365
       O   -18.97311   -3.86944    3.65583
      H1   -18.16683   -4.16636    3.16058
       H   -19.14354   -2.65490   -0.79023
       O   -19.07398   -3.03441    0.13580
      H1   -19.45240   -2.34729    0.67134
       H   -17.24397   -1.15502    5.60125
       O   -17.68508   -1.97338    5.93759
      H1   -17.70271   -2.41005    5.09552
       H   -19.56728    3.57759    2.49071
       O   -18.60922    3.40192    2.38809
      H1   -18.13306    3.99493    3.03391
       H   -14.00446    2.16644    0.74033
       O   -14.53022    2.40856    1.50131
      H1   -15.06754    1.61541    1.59054
       H   -13.75296   -4.64970    6.82801
       O   -14.71036   -4.92745    6.70382
      H1   -15.23312   -4.44137    7.32787
       H   -17.23122   -3.23519    8.43364
       O   -16.29765   -3.51709    8.47680
      H1   -16.17093   -3.94741    9.30660
       H   -12.64290    5.30978    7.62670
       O   -13.15059    4.56987    7.26913
      H1   -13.07232    3.89573    7.97227

