81
frame 9 | Written by MDAnalysis XYZWriter (release 2.4.3)
       H    -5.95182    9.83014  -17.89235
       O    -6.86186    9.98222  -18.23070
      H1    -7.00657   10.93383  -18.37710
       H    -4.43211    5.37126  -17.29652
       O    -4.86315    5.70191  -16.49813
      H1    -4.30849    5.53340  -15.69832
       H    -8.70842   11.37554  -12.46960
       O    -8.87100   12.32117  -12.77498
      H1    -9.28328   12.76465  -11.99319
       H    -4.55489   15.32511  -14.13718
       O    -4.16977   14.73306  -14.81723
      H1    -4.00557   15.34737  -15.55777
       H    -8.82204    7.91122  -16.46195
       O    -8.15565    8.53574  -16.13123
      H1    -7.88923    9.06810  -16.90485
       H    -4.03415   16.83781  -17.38975
       O    -4.44774   16.03924  -17.20108
      H1    -4.74483   15.60690  -17.99628
       H    -9.38414    6.04210  -19.40887
       O   -10.10232    5.53914  -19.00790
      H1   -10.54237    6.14839  -18.38568
       H    -4.76835   13.19336  -15.31768
       O    -5.00775   12.39602  -15.80225
      H1    -4.91916   11.64686  -15.22219
       H   -11.03964    6.99695  -16.21926
       O   -10.71144    7.47251  -16.98689
      H1   -11.33445    8.21492  -17.00927
       H    -4.65852    7.67499  -17.32425
       O    -4.65401    8.51812  -17.81103
      H1    -4.15316    9.28470  -17.38712
       H    -1.99602    7.36964  -15.84731
       O    -2.52296    7.36266  -14.99338
      H1    -3.45050    7.73270  -15.04218
       H    -1.47189   10.83896  -15.03179
       O    -1.16715   11.29154  -15.80037
      H1    -2.02236   11.23272  -16.37145
       H    -5.10494   11.23370  -12.94007
       O    -4.83136   11.87418  -12.28035
      H1    -5.42667   12.63449  -12.54773
       H   -10.59704    9.20376  -14.50104
       O   -10.26030    9.87861  -15.14024
      H1    -9.38059    9.59785  -15.48592
       H    -4.14850    5.92913  -19.60167
       O    -4.16645    5.06031  -19.19245
      H1    -3.91069    4.45957  -19.91525
       H    -6.29134   16.31824  -17.08443
       O    -7.11995   16.80742  -16.97798
      H1    -7.73134   16.29461  -17.44117
       H    -7.28040   14.77960  -16.02273
       O    -7.63529   13.90709  -16.01022
      H1    -7.03518   13.30471  -15.51057
       H   -10.24775   12.31035  -16.89633
       O   -10.88241   12.27195  -17.62967
      H1   -11.22653   11.31494  -17.71419
       H    -8.33646   12.60553  -18.95070
       O    -7.52375   12.58942  -18.43753
      H1    -7.67829   13.16902  -17.61715
       H   -10.63012   15.55732  -18.54008
       O   -10.16728   15.17221  -19.29069
      H1    -9.69947   15.90880  -19.68059
       H    -7.35500   13.27923  -13.12190
       O    -6.52710   13.72944  -13.36019
      H1    -6.78292   14.49398  -13.93272
       H    -6.61358    8.37744  -12.98133
       O    -6.16827    7.98756  -13.78793
      H1    -6.93291    8.01953  -14.41915
       H   -13.20866   10.16903  -17.05976
       O   -12.25559    9.91644  -17.19855
      H1   -11.84762    9.93947  -16.30470
       H    -3.37525    9.68582  -14.04378
       O    -4.29171    9.88319  -14.40202
      H1    -4.86192    9.13351  -14.14546
       H    -9.89416   13.68539  -15.04901
       O   -10.74931   13.15145  -14.84974
      H1   -10.37054   12.37023  -14.41015
       H    -3.50196   10.82686  -18.20814
       O    -3.47871   10.87698  -17.24076
      H1    -4.11148   11.62141  -17.01409
       H    -6.13353   15.18647  -19.92008
       O    -5.90775   14.81687  -19.09899
      H1    -6.45463   13.95756  -18.98912

