81
frame 10 | Written by MDAnalysis XYZWriter (release 2.4.3)
       H    -6.07181    6.23215  -18.12887
       O    -5.99054    6.41014  -17.17470
      H1    -5.19794    6.02094  -16.86722
       H    -5.97199   -1.04420  -13.86160
       O    -6.58876   -0.43358  -14.31252
      H1    -6.98525    0.05965  -13.57899
       H    -5.87971    8.15534  -17.62953
       O    -5.81583    8.85605  -18.32536
      H1    -4.93616    9.29516  -18.20437
       H    -5.85146    6.82226  -13.46336
       O    -5.47954    5.92786  -13.36881
      H1    -5.12468    5.77010  -14.27842
       H    -1.54444    7.50777  -16.11266
       O    -2.49320    7.66531  -15.74848
      H1    -3.06634    7.30635  -16.48059
       H     0.97953    2.85897  -14.28004
       O     0.39854    3.52299  -13.96135
      H1    -0.31631    2.97726  -13.56679
       H    -2.30174   -0.95896  -15.13668
       O    -2.97789   -1.68183  -15.04870
      H1    -3.78846   -1.16389  -15.10288
       H    -0.37068    5.23182  -17.85770
       O    -0.16220    5.33370  -18.78082
      H1     0.30898    6.15140  -18.78693
       H    -2.15634    0.97481  -18.87248
       O    -2.36214    0.04480  -18.96838
      H1    -2.56902   -0.19955  -19.88227
       H     0.56578    8.64269  -19.41119
       O    -0.32445    9.03615  -19.51845
      H1    -0.89122    8.50092  -18.93393
       H    -9.30866    2.05143  -15.01198
       O    -8.49011    1.56050  -14.95978
      H1    -8.69893    0.72285  -15.32806
       H    -8.94673    4.10290  -18.31423
       O    -8.80414    3.26448  -17.89721
      H1    -9.66840    2.95036  -17.50947
       H    -2.80468   -2.04127  -18.77349
       O    -3.11928   -2.94971  -18.54985
      H1    -2.74911   -3.52178  -19.24926
       H    -8.50162    0.30539  -19.45334
       O    -8.46743    1.22579  -19.73249
      H1    -8.59946    1.86361  -18.97797
       H    -5.97592   -0.99284  -17.36738
       O    -5.67353   -0.12005  -17.04964
      H1    -6.08423   -0.08168  -16.14179
       H    -4.26076    3.92449  -18.58228
       O    -3.88518    3.08035  -18.15522
      H1    -4.49468    2.34876  -18.44155
       H    -0.30839   -0.15372  -18.60692
       O     0.61396   -0.44974  -18.45912
      H1     0.50764   -1.29902  -18.09037
       H    -1.74555    1.56011  -12.66714
       O    -1.18246    1.38113  -13.41743
      H1    -0.55322    0.66817  -13.04333
       H    -1.21155    3.78158  -16.88263
       O    -1.16446    4.49623  -16.22404
      H1    -0.60718    4.17633  -15.48151
       H    -3.00455    5.24161  -15.69047
       O    -3.97183    5.06974  -15.71234
      H1    -4.21280    4.15911  -16.05459
       H    -7.25549    5.47157  -16.45586
       O    -7.73799    4.76163  -15.89912
      H1    -7.92851    4.08066  -16.51288
       H     0.18912    0.25779  -16.08134
       O    -0.74873    0.22138  -15.86190
      H1    -0.75865    0.74386  -15.07748
       H    -1.15437    1.55110  -17.36221
       O    -1.14057    2.39337  -17.85982
      H1    -2.01874    2.81231  -17.88503
       H     2.65214    4.51089  -18.67312
       O     2.41893    3.72608  -18.11527
      H1     1.66830    3.32703  -18.49929
       H    -5.73134    0.90359  -18.45098
       O    -5.69553    1.31897  -19.32990
      H1    -6.65323    1.47649  -19.61053
       H    -3.37677    6.98139  -19.26882
       O    -2.47876    7.06380  -18.92638
      H1    -1.87428    6.32255  -19.19772
       H    -7.40727    2.94945  -14.04875
       O    -6.74311    3.21342  -13.36740
      H1    -6.53155    4.18660  -13.50809

