81
frame 10 | Written by MDAnalysis XYZWriter (release 2.4.3)
       H    17.29127   -1.62094   13.03386
       O    16.48247   -1.24973   13.38225
      H1    16.68308   -0.51520   13.97548
       H    13.22766    5.51054   16.54482
       O    13.14743    4.63296   16.86136
      H1    12.65169    4.12822   16.23279
       H    10.58840    5.45070   17.87506
       O    11.07127    4.86597   18.49596
      H1    11.89825    4.70678   18.04752
       H     9.75996    3.62383   18.27480
       O     8.94715    3.09780   18.41265
      H1     9.24207    2.49470   19.11202
       H    16.05704   -2.13930   17.14054
       O    16.18588   -1.28317   16.69130
      H1    15.34571   -0.81485   16.65919
       H    16.64944    1.58426   15.42026
       O    17.17485    0.81909   15.17972
      H1    17.19937    0.25166   15.98140
       H    10.34173    3.02561   15.65620
       O    11.26136    2.88301   15.56600
      H1    11.51370    3.30173   14.75837
       H    13.20196    2.68621   13.20731
       O    12.59698    3.40858   13.13375
      H1    11.94619    3.19555   12.44676
       H    16.56448    3.61761   13.76660
       O    16.60902    3.79982   14.71475
      H1    15.83371    3.47273   15.16498
       H    14.86621    1.21837   13.27055
       O    14.16517    1.31335   13.94892
      H1    13.45135    0.81631   13.55308
       H    15.13026    7.71725   17.72773
       O    16.05838    7.39927   17.74834
      H1    16.14486    6.93398   16.88501
       H    16.47842   -4.21568   18.77311
       O    15.76531   -3.62097   18.50410
      H1    15.91515   -2.83629   19.01517
       H    18.95701    6.16813   18.47180
       O    18.15403    5.91505   19.05362
      H1    17.50974    6.60994   18.78387
       H    15.49812    2.38222   19.89683
       O    16.06443    2.48435   19.14487
      H1    15.54757    2.57646   18.31108
       H    18.27671   -0.04490   19.70977
       O    17.85754   -0.86092   19.34700
      H1    17.59738   -0.70652   18.43216
       H    10.51523   -0.92092   16.91505
       O    11.32949   -1.44414   16.99400
      H1    11.63953   -1.62173   16.11689
       H    16.07223    2.42828   11.34739
       O    16.39468    2.45225   12.29973
      H1    17.17888    1.92964   12.35468
       H    17.72781    1.55890   18.74753
       O    18.46330    1.51900   18.13948
      H1    19.03238    2.28401   18.38655
       H    12.77875    0.84770   18.14662
       O    12.70701    1.13076   19.07493
      H1    13.06377    0.34079   19.47196
       H    14.29809    2.16702   16.69199
       O    14.98817    2.80191   16.76119
      H1    14.49294    3.61530   16.95781
       H    12.68576   -0.17183   16.37419
       O    13.50976    0.42393   16.37531
      H1    13.78971    0.73596   15.46628
       H    18.72396    7.28395   15.58411
       O    19.29110    7.77035   16.23910
      H1    18.68009    8.35958   16.70132
       H    11.99872    6.98939   16.00351
       O    12.92636    6.95583   15.84820
      H1    13.10408    7.78035   15.35004
       H    16.87800    5.70761   14.66152
       O    17.08507    6.55369   15.03056
      H1    16.64819    7.16857   14.40988
       H    17.39189   10.43539   18.20471
       O    17.76758    9.52742   18.17924
      H1    17.01030    8.95461   18.31040
       H    14.33355   10.05291   18.97673
       O    14.26148    9.14383   18.63182
      H1    13.98222    8.57823   19.33390
       H    19.15342    2.51364   16.35658
       O    19.31550    3.23874   15.76295
      H1    18.47540    3.45202   15.40821

