81
frame 10 | Written by MDAnalysis XYZWriter (release 2.4.3)
       H    14.80527   12.12027    4.66975
       O    15.69725   11.88624    4.39177
      H1    15.60903   11.83580    3.43166
       H    11.33168    8.84369   11.29616
       O    11.85664    9.54155   11.67967
      H1    12.11758   10.13280   10.92869
       H    13.06404   11.72049    9.22225
       O    12.25551   11.46362    9.69518
      H1    11.66422   12.23526    9.93208
       H    14.18313   17.03574    8.71250
       O    14.07266   17.77130    9.32380
      H1    14.89014   18.14847    9.56169
       H    14.08849   11.15776   11.48886
       O    14.72409   10.57774   11.00550
      H1    14.34089   10.35855   10.09930
       H    14.17234    8.82895   13.80018
       O    13.26562    8.90977   14.12297
      H1    12.66851    8.79159   13.33742
       H    11.98507    8.07616    7.24257
       O    12.59725    8.55736    6.69323
      H1    12.07487    9.31779    6.37250
       H    17.41101   14.28660    9.51785
       O    17.85346   15.09098    9.86942
      H1    17.76084   14.84959   10.80244
       H    17.08824   12.13096    5.60833
       O    17.64327   12.43652    6.34671
      H1    18.55543   12.16481    6.14238
       H    15.61190    8.11980    7.66648
       O    15.47174    7.18329    7.69762
      H1    15.49265    6.93187    8.62228
       H    10.09208   10.38280    5.53253
       O    10.31745   10.30235    4.59395
      H1     9.53842    9.96321    4.22460
       H    13.12140   16.85312    6.14926
       O    13.79017   16.11171    6.29044
      H1    14.62242   16.44167    5.95266
       H    17.22171   11.85698    9.56912
       O    17.01563   12.63791    9.07265
      H1    17.20430   12.28272    8.16108
       H    13.50775   14.25734    5.96383
       O    13.51345   13.28066    5.91100
      H1    13.63115   12.95545    6.86500
       H    10.14343    6.79398   10.97175
       O     9.87875    7.57260   10.41836
      H1     8.95428    7.70847   10.60237
       H     7.16856   11.60376   10.66827
       O     7.76290   10.80428   10.84130
      H1     8.64068   11.19307   10.95352
       H    15.33971   12.44598    8.70490
       O    14.53863   12.11851    8.23279
      H1    14.82143   11.43840    7.67462
       H     9.33975   11.89076   13.47251
       O     9.93515   11.64648   12.71666
      H1    10.36715   10.94516   13.14069
       H    14.36024    9.10193    6.73444
       O    15.03881    9.80235    6.73395
      H1    15.52806    9.67934    5.92794
       H    11.16544   11.29437    8.22368
       O    10.81387   11.05236    7.34723
      H1    10.79746   11.90764    6.94792
       H    15.38869   14.73450   12.93373
       O    14.50935   14.89598   13.30289
      H1    13.99382   14.10918   13.07401
       H     8.01953   12.29860    6.47020
       O     7.88122   11.41300    6.77913
      H1     8.61805   11.34044    7.38489
       H    10.64225   14.53440   11.03417
       O    10.57525   13.54352   11.00726
      H1    10.39211   13.27281   11.92403
       H    17.82853   10.08293   11.17530
       O    17.43410   10.96887   11.46161
      H1    16.48873   10.81875   11.56086
       H    12.39045   12.53991   12.41802
       O    13.30198   12.54777   12.74227
      H1    13.20905   12.19186   13.64017
       H    12.42078   12.68371    4.10607
       O    11.61569   12.49045    3.57302
      H1    11.28216   11.64627    3.81343
       H    15.48980    8.83579   12.60772
       O    15.85891    8.61929   13.51629
      H1    16.44655    9.37281   13.78333

