81
frame 11 | Written by MDAnalysis XYZWriter (release 2.4.3)
       H   -19.18836   11.75034   -8.38081
       O   -18.97851   10.84752   -8.34151
      H1   -19.52486   10.56471   -7.57314
       H   -17.97066   12.24900   -5.99283
       O   -18.70624   12.92342   -5.82331
      H1   -19.53109   12.59886   -6.14877
       H   -14.16918   11.63204  -10.43146
       O   -14.20503   11.81637   -9.49360
      H1   -14.99204   12.38393   -9.39280
       H   -14.73455    8.25148   -3.40747
       O   -13.83670    8.38362   -3.08621
      H1   -13.85045    8.95022   -2.27927
       H   -13.41929   15.76301   -3.47533
       O   -14.08393   15.45823   -2.81819
      H1   -14.91638   15.92805   -2.94969
       H   -13.72376   12.83331   -4.47860
       O   -14.30882   12.93547   -5.22117
      H1   -13.72014   13.04652   -6.00562
       H   -16.07824   17.73398   -2.07738
       O   -16.49438   16.87046   -2.31269
      H1   -16.90039   16.91810   -3.17389
       H   -19.10943   14.39285   -0.08277
       O   -18.81195   13.74116    0.55470
      H1   -19.09121   14.06796    1.39795
       H   -17.64727   12.19795    1.45557
       O   -16.92797   12.11818    2.03703
      H1   -16.81655   11.14161    2.08300
       H   -14.38418   13.75840   -2.27378
       O   -13.98521   12.97457   -1.86419
      H1   -14.65376   12.29903   -1.68692
       H   -18.03716    9.77542   -4.89976
       O   -18.94526    9.72436   -4.48639
      H1   -18.71793    9.19422   -3.68024
       H   -16.31056    9.47434   -4.19331
       O   -16.29708    8.54027   -4.43574
      H1   -16.58126    8.46625   -5.39230
       H   -16.92992   13.69047   -9.50092
       O   -16.90196   13.10232   -8.75192
      H1   -16.69721   13.60933   -7.97866
       H   -17.96203    7.80092   -7.50512
       O   -17.32726    8.31798   -6.91673
      H1   -16.60979    8.61391   -7.51393
       H   -11.51704   11.06148   -1.67488
       O   -11.79955   11.43229   -2.51929
      H1   -12.47124   12.10925   -2.27884
       H   -15.78010   10.27677    0.54269
       O   -15.40845   10.73558   -0.21414
      H1   -16.06865   10.71263   -0.92719
       H   -16.02610   14.74677    1.15660
       O   -15.49955   14.43479    1.87932
      H1   -15.68565   13.48883    1.87051
       H   -18.05206   13.91387   -2.98252
       O   -17.81151   13.08570   -3.34084
      H1   -18.27190   12.99841   -4.16032
       H   -19.03248   12.22401   -2.24376
       O   -19.33017   11.79668   -1.36834
      H1   -19.24511   12.42422   -0.67108
       H   -18.68224   16.95731   -4.16587
       O   -17.82638   17.25452   -4.51040
      H1   -17.85196   16.97430   -5.38352
       H   -17.92319   17.63853   -8.16746
       O   -18.46875   16.84106   -8.13877
      H1   -19.30727   17.01878   -7.61109
       H   -15.38966   17.74029   -8.01632
       O   -15.22187   16.77041   -8.01900
      H1   -15.74680   16.34692   -7.28882
       H   -16.30870   10.75587   -6.97002
       O   -16.35875   11.17844   -6.10504
      H1   -15.46671   11.47070   -5.88974
       H   -18.55066    9.42448   -0.33665
       O   -18.03895    9.04435   -1.05488
      H1   -17.74935    8.20850   -0.69064
       H   -18.18214   16.00541   -1.64480
       O   -18.80866   15.30592   -1.81865
      H1   -19.72469   15.63165   -1.77249
       H   -17.33630   10.14935   -2.25272
       O   -16.62496   10.75387   -2.59974
      H1   -17.06524   11.51588   -2.95174
       H   -15.75031   14.03972   -5.70198
       O   -16.45982   14.50054   -6.07927
      H1   -17.30678   14.14003   -5.76790

