81
frame 10 | Written by MDAnalysis XYZWriter (release 2.4.3)
       H   -16.80619    6.41310   10.24300
       O   -16.62469    6.86853   11.08489
      H1   -17.42402    7.21067   11.40882
       H   -13.65486   10.72287   11.62576
       O   -14.45024   10.34153   12.07741
      H1   -15.31788   10.64406   11.73913
       H   -18.65478   11.06609    8.96507
       O   -18.86395   10.31911    9.53515
      H1   -18.37139   10.54769   10.35478
       H   -12.91077   10.58839    6.49559
       O   -12.18222   10.10322    6.90535
      H1   -12.21819   10.09634    7.87473
       H   -12.85158   12.81696   16.89257
       O   -13.23784   12.96687   16.00775
      H1   -12.58152   13.35819   15.37460
       H   -15.13202    7.64850   10.88897
       O   -14.24916    8.07840   10.99399
      H1   -14.45370    8.96290   11.37894
       H   -16.31264   13.63359   14.30708
       O   -15.81205   14.50931   14.17966
      H1   -15.64315   14.78833   15.09613
       H   -16.32319    8.83345    7.87633
       O   -15.56849    8.91139    8.41578
      H1   -15.85975    8.88445    9.34076
       H   -13.77079   15.49180   11.52620
       O   -14.56424   15.85168   11.96539
      H1   -14.81759   15.14986   12.63921
       H   -13.55750    8.41598   15.03749
       O   -13.52318    7.44764   14.90067
      H1   -13.05595    7.06836   15.65321
       H   -15.88171   11.22472   15.09714
       O   -16.73437   11.67263   14.97575
      H1   -16.99626   11.91190   15.86848
       H   -13.76723   11.39896   14.90604
       O   -14.13560   10.52700   14.75505
      H1   -14.21736   10.39633   13.80474
       H   -16.58632   12.02209   11.44349
       O   -16.87863   11.17784   11.76566
      H1   -17.13244   11.26137   12.66826
       H   -12.07236   14.53600   12.33809
       O   -12.27489   14.18279   11.49209
      H1   -12.57667   13.28690   11.70843
       H   -15.36291    6.31658   12.76540
       O   -15.10093    5.84585   13.54774
      H1   -14.39050    6.35093   14.02835
       H   -12.66740   14.83126    8.63280
       O   -12.31761   15.68786    8.49047
      H1   -11.33342   15.57882    8.27916
       H   -18.02675   12.30084    5.85819
       O   -18.70244   11.76815    6.27795
      H1   -18.33012   10.91071    6.53035
       H   -18.93043    8.84919   15.25014
       O   -18.17234    9.10118   14.74302
      H1   -18.05403   10.00357   14.98875
       H   -18.80112   13.90201    9.03679
       O   -17.95198   14.32186    8.83691
      H1   -18.26483   15.06419    8.30978
       H   -18.95379    6.98859   12.20621
       O   -18.74283    7.91592   12.25410
      H1   -18.51672    8.21946   13.18540
       H   -15.69223   14.41696   11.09446
       O   -16.06393   13.70705   10.64581
      H1   -16.86261   13.96280   10.11764
       H   -17.52433   15.09594   13.29475
       O   -18.49725   15.10982   13.11531
      H1   -18.74963   16.08965   13.02817
       H   -12.69929    8.41330    9.90143
       O   -11.91076    8.56729    9.40647
      H1   -11.18450    8.55630   10.09081
       H   -16.96969   15.93859    9.67759
       O   -16.82788   16.78867   10.11650
      H1   -16.20414   17.24791    9.53187
       H    -9.68148   12.12673   10.97589
       O   -10.00848   11.97051   10.11724
      H1   -10.94227   11.82686   10.36274
       H   -13.09943   11.95398    9.77990
       O   -12.55718   11.28610   10.19211
      H1   -12.70824   10.43396    9.73575
       H   -14.78951   13.38002    9.33291
       O   -13.99544   13.22080    8.83992
      H1   -14.22080   13.04976    7.98083

