81
frame 10 | Written by MDAnalysis XYZWriter (release 2.4.3)
       H   -19.59940  -15.36612   -7.68507
       O   -19.32666  -16.29766   -7.70796
      H1   -19.60219  -16.79182   -8.46611
       H   -14.76146  -12.55040   -0.30355
       O   -14.78673  -13.04252   -1.14482
      H1   -15.69692  -12.84823   -1.49288
       H   -17.52248  -13.35375   -9.39517
       O   -17.63365  -14.11317   -9.97024
      H1   -16.81469  -14.64938   -9.96279
       H   -17.32296  -19.63957   -5.37441
       O   -16.90062  -18.77218   -5.12015
      H1   -17.63079  -18.20622   -4.88348
       H   -12.19842  -19.09868   -8.61809
       O   -12.28210  -19.23956   -7.68443
      H1   -13.18817  -19.05129   -7.41042
       H   -17.55957  -15.66253   -7.40657
       O   -16.75976  -15.50988   -6.95762
      H1   -16.96382  -15.80492   -6.03262
       H   -18.24405  -14.84739   -3.74664
       O   -19.09386  -14.39437   -3.50002
      H1   -19.63270  -15.00576   -2.98719
       H   -15.39206  -18.48575   -6.31130
       O   -14.67320  -18.29725   -6.88700
      H1   -14.47015  -17.33978   -6.70401
       H   -19.39529  -16.95815   -5.98246
       O   -19.28389  -17.34359   -5.02951
      H1   -19.72850  -16.70286   -4.48554
       H   -15.94241   -9.23911   -3.17712
       O   -15.63292  -10.06551   -2.66906
      H1   -15.92581  -10.82559   -3.17181
       H   -17.37315  -11.45679   -7.51175
       O   -17.62744  -12.16825   -8.14387
      H1   -18.36015  -12.67058   -7.79819
       H   -17.94245  -13.11385   -2.80023
       O   -17.18748  -12.58396   -2.54415
      H1   -17.53554  -11.85799   -1.98407
       H   -12.88382  -11.29356   -4.32274
       O   -12.55215  -12.14335   -4.80575
      H1   -13.15127  -12.88530   -4.59916
       H   -16.02242  -13.47827   -6.47232
       O   -15.98835  -12.74769   -5.85409
      H1   -16.86406  -12.41503   -5.80681
       H   -15.13477  -13.20102   -4.37940
       O   -14.60611  -13.79773   -3.82778
      H1   -14.66536  -13.55312   -2.90255
       H   -14.63426  -16.75994   -2.01065
       O   -15.00491  -17.17682   -2.80953
      H1   -15.18909  -18.10826   -2.48355
       H   -14.45857  -18.49223  -10.94602
       O   -15.00318  -17.78652  -11.22578
      H1   -14.78869  -17.47816  -12.13830
       H   -20.24000  -15.13778  -11.78603
       O   -19.25114  -15.12160  -11.85597
      H1   -18.92461  -14.86667  -10.98391
       H   -17.98154  -17.59855   -1.55197
       O   -18.21823  -18.39986   -2.08133
      H1   -17.45719  -18.57834   -2.65104
       H   -11.69995  -14.32370   -8.07033
       O   -11.69988  -14.39027   -7.16238
      H1   -11.43928  -15.24983   -6.99694
       H   -17.49732   -9.75258   -7.06758
       O   -16.97287  -10.18780   -6.38601
      H1   -16.10715   -9.79319   -6.57172
       H   -13.40016  -17.66187   -3.52294
       O   -12.63095  -17.67589   -4.07004
      H1   -12.88778  -17.27640   -4.84943
       H   -15.50049  -15.99212   -8.75558
       O   -15.32697  -15.64809   -9.61799
      H1   -15.33733  -16.40632  -10.25254
       H   -16.07263  -14.83891   -3.96405
       O   -16.70559  -15.49730   -4.13496
      H1   -16.34987  -16.23216   -3.54441
       H   -13.44965  -13.45448  -11.41859
       O   -14.29391  -13.23484  -11.04457
      H1   -14.58585  -14.03034  -10.57955
       H   -15.01495  -11.02349   -6.88860
       O   -14.24536  -10.47507   -6.75010
      H1   -13.55621  -10.94169   -6.33271
       H   -14.19785  -15.44929   -5.05223
       O   -13.73973  -15.87782   -5.79726
      H1   -13.31432  -15.13374   -6.30722

