81
frame 10 | Written by MDAnalysis XYZWriter (release 2.4.3)
       H   -11.36393    0.94797   12.22262
       O   -11.69646    0.12040   12.61207
      H1   -11.73998    0.31790   13.57810
       H   -15.10677   -5.74277   14.98851
       O   -14.93403   -4.94273   14.50614
      H1   -14.74874   -4.23385   15.14072
       H   -11.32500    1.34035   18.49641
       O   -10.52510    1.49696   17.88783
      H1    -9.74689    1.40470   18.42633
       H   -12.82180   -2.99560   16.06228
       O   -11.94090   -2.95863   15.69610
      H1   -11.89486   -3.40467   14.86437
       H   -10.66431    3.98321   14.83881
       O   -10.25383    4.41025   14.04730
      H1   -10.51661    5.34769   13.87597
       H   -18.85308    6.20976   16.93063
       O   -18.40645    5.39772   17.29514
      H1   -18.85129    4.68797   16.83591
       H   -15.70857    2.80532   12.85986
       O   -16.03471    3.16460   13.70079
      H1   -15.64352    4.03125   13.79024
       H   -18.94408    2.65240   13.91475
       O   -18.56914    2.62710   13.03213
      H1   -17.64439    2.78491   13.08006
       H   -17.16249    5.99674   16.27362
       O   -16.18970    6.20497   16.20312
      H1   -16.09587    6.41165   15.23807
       H   -14.85945    1.03928   11.99411
       O   -14.97085    1.90036   11.52805
      H1   -15.79514    1.92731   10.98152
       H   -18.47716   -2.43443   15.58467
       O   -18.64583   -3.39993   15.48178
      H1   -18.84138   -3.71776   16.43108
       H   -14.77685   -1.17525   12.85154
       O   -14.37161   -0.32536   13.03591
      H1   -13.49472   -0.43394   12.56083
       H   -19.28668   -1.79038   17.56244
       O   -19.08685   -0.95895   17.22021
      H1   -19.62741   -0.36887   17.76285
       H   -13.12201    1.61784   19.27431
       O   -13.01389    0.68598   19.01896
      H1   -13.70677    0.10788   19.47520
       H   -13.17937    5.15813   16.66315
       O   -12.78885    5.93261   17.07550
      H1   -11.92275    5.51392   17.30099
       H   -16.49657    0.48810   18.16940
       O   -16.88988   -0.06550   18.87230
      H1   -17.53343   -0.68931   18.47832
       H    -8.71474   -1.36951   18.31917
       O    -8.95942   -1.28973   17.39270
      H1    -8.34403   -0.54619   17.19232
       H   -13.50403    4.20085   19.46175
       O   -12.67317    3.68604   19.69667
      H1   -11.93132    4.06151   19.17627
       H   -11.80263   -1.07801   19.13877
       O   -11.40359   -1.95120   18.91212
      H1   -11.40482   -2.07545   17.95258
       H   -14.23287   -3.39976   17.71359
       O   -14.36151   -3.34209   16.76371
      H1   -14.81203   -2.48392   16.63954
       H   -18.29899   -0.50344   12.08383
       O   -17.91547   -1.16206   12.62232
      H1   -17.78111   -0.68638   13.46504
       H   -15.09252    4.36668   16.34126
       O   -14.51978    3.69730   15.97078
      H1   -14.95498    3.30647   15.24940
       H   -16.58251   -0.52777   15.31989
       O   -17.50642   -0.36509   15.16223
      H1   -17.99850   -0.57815   15.97551
       H   -10.12629    3.47662   18.21346
       O   -10.35546    4.43595   18.14670
      H1    -9.73071    4.82163   18.74255
       H   -14.81001    2.31623   16.99368
       O   -15.01700    1.53819   17.51525
      H1   -14.15970    1.18748   17.88473
       H   -14.92893    0.13902   16.42130
       O   -14.91535   -0.69582   15.87578
      H1   -14.60403   -0.39689   15.03519
       H   -11.43097    0.40896   16.21513
       O   -12.08857    0.19006   15.53506
      H1   -12.20025   -0.78601   15.70784

