84
frame 1 | Written by MDAnalysis XYZWriter (release 2.4.3)
       H   -15.83312   12.50929   17.88839
       O   -15.97561   11.61471   17.50933
      H1   -15.73731   11.07498   18.31360
       H   -16.69688    7.99625    9.97209
       O   -16.64832    7.55863   10.85923
      H1   -17.50406    7.10902   11.11857
       H   -18.22013    5.64581   19.45976
       O   -17.42765    6.11456   19.88326
      H1   -17.30546    6.84336   19.30164
       H   -10.56908    5.93250   13.73452
       O   -11.05736    6.07382   14.53677
      H1   -11.19534    7.02730   14.64132
       H   -12.32067    8.47599   13.01915
       O   -12.79697    8.02213   12.33020
      H1   -12.91819    7.08412   12.64551
       H   -13.10635    3.56947   17.22548
       O   -12.22466    3.18352   17.25448
      H1   -11.87899    3.35379   18.16457
       H   -14.38240   12.46218   16.19847
       O   -13.88788   13.07237   15.59753
      H1   -14.54708   13.31851   14.90309
       H   -14.00333    5.36199   14.00391
       O   -13.47223    5.15469   13.21927
      H1   -12.54624    5.37415   13.55785
       H   -18.81385    4.68618   15.20259
       O   -18.05606    4.79784   14.59653
      H1   -17.46597    4.03318   14.88852
       H   -15.45859    2.72492   15.68415
       O   -14.91054    3.48237   15.50130
      H1   -14.26969    3.14700   14.77429
       H   -19.10259    2.38771   13.02406
       O   -19.05778    2.38403   12.08229
      H1   -18.23856    2.76698   11.83050
       H   -17.51964    6.40051   14.31238
       O   -17.37616    7.31386   14.61733
      H1   -16.87142    7.76940   13.92909
       H   -13.98240   10.80399   12.04304
       O   -13.25327   11.46369   12.07794
      H1   -12.87203   11.54167   11.17588
       H   -13.99884   10.49634   14.95786
       O   -13.41763   10.12301   15.59096
      H1   -14.10821    9.58144   16.06882
       H   -17.73582    7.80310   16.56316
       O   -18.19249    8.04389   17.36808
      H1   -18.27643    9.01345   17.33397
       H   -19.78264   11.79606   14.05851
       O   -19.54649   12.41618   14.81951
      H1   -19.23104   11.79695   15.49893
       H   -12.99894    6.58847   16.95159
       O   -13.02756    7.40915   17.53156
      H1   -12.10999    7.45660   17.77394
       H   -15.92905    9.04906   11.88705
       O   -15.22817    9.49161   12.41470
      H1   -14.41606    8.99000   12.18998
       H   -17.58232   13.88388   15.59808
       O   -17.18342   14.65506   16.01917
      H1   -17.87634   15.37065   16.02408
       H   -14.94123    5.11110   18.54655
       O   -14.38083    4.39163   18.89615
      H1   -13.53257    4.86578   19.12660
       H   -19.86410    5.77045   10.82521
       O   -19.39622    6.65051   11.08121
      H1   -19.88653    6.92115   11.90768
       H   -17.76319   11.32590   17.69885
       O   -18.52695   10.79837   17.41510
      H1   -19.39629   11.03075   17.80912
       H   -12.19254    9.09164   15.09375
       O   -11.36868    8.82672   14.57482
      H1   -10.75334    9.47510   14.93048
       H   -14.25768   14.24918   17.97397
       O   -15.19093   14.35587   18.15043
      H1   -15.66993   14.44668   17.29881
       H   -14.24406    7.85103   18.90183
       O   -15.14032    7.88712   19.29536
      H1   -15.11928    7.15262   19.93815
       H   -15.61845    6.58055   15.54910
       O   -14.78679    6.05568   15.47147
      H1   -15.03078    5.17872   15.73034
       H   -18.66714    3.00597   18.83521
       O   -18.20968    2.24056   18.54169
      H1   -17.39850    2.29601   19.05179
       H   -17.78460    1.94299   16.81544
       O   -17.51891    1.88474   15.88469
      H1   -16.96331    1.15184   15.75758

