84
frame 1 | Written by MDAnalysis XYZWriter (release 2.4.3)
       H    17.05310   11.86372    3.51814
       O    16.64829   11.50243    2.69033
      H1    17.34928   10.95863    2.29453
       H    14.62235   14.33472    1.82904
       O    14.97464   14.39521    0.93730
      H1    15.82385   13.87629    0.86633
       H    18.80049   13.89230    1.74515
       O    19.70696   13.79221    1.44877
      H1    20.28770   13.89537    2.24350
       H    20.20896   16.28045    9.52866
       O    19.24940   16.46794    9.55776
      H1    18.88300   16.22325    8.70098
       H    15.88567   11.91468   -0.82299
       O    15.54214   11.20940   -0.25068
      H1    16.23688   11.41266    0.41803
       H    13.42956   11.10468    8.26544
       O    12.54579   10.81777    8.60760
      H1    12.27748   11.59140    9.16627
       H    18.93403   17.01867    2.25013
       O    19.66267   17.64423    2.05667
      H1    19.23920   18.50259    2.23187
       H    13.51533   15.57764    7.30038
       O    13.52034   14.87002    7.97416
      H1    14.50778   14.75443    8.13801
       H    14.03399   16.29894    3.05495
       O    13.76849   15.49196    3.42747
      H1    13.50107   15.72075    4.35564
       H    16.98714    8.63881    3.69345
       O    17.89696    8.81348    3.62860
      H1    18.07045    9.03589    2.68261
       H    18.85069    9.32385    6.19226
       O    18.95399    8.47076    6.63869
      H1    18.05073    8.20496    6.94429
       H    15.66936   13.64100    9.12618
       O    16.06812   14.48028    8.77631
      H1    16.06395   15.14131    9.51698
       H    17.96106   10.19159    4.62056
       O    18.04171   10.97008    5.18576
      H1    18.98560   11.10610    5.13313
       H    12.54588   17.35862    5.84854
       O    13.46890   17.10622    5.95502
      H1    14.02382   17.62104    5.40768
       H     9.98415   14.21249    4.95451
       O    10.43586   13.36339    4.70201
      H1    11.41958   13.61472    4.88091
       H    16.20204   18.54220    4.79754
       O    15.45563   18.21907    4.32213
      H1    15.01950   19.05948    4.02253
       H    17.87296   10.78184    8.64031
       O    17.90076   11.53513    8.04488
      H1    18.13725   11.18262    7.20042
       H    13.85771   13.71774    4.76936
       O    13.09897   13.43160    5.25314
      H1    13.40609   13.45508    6.15030
       H    17.63922   19.03784    6.26174
       O    17.95392   18.63860    5.46380
      H1    18.85269   19.01475    5.25955
       H    16.16863   11.03781    7.84220
       O    15.28484   10.81236    7.68849
      H1    15.20930   10.77541    6.69092
       H    15.11623    9.57871    4.73134
       O    15.08771   10.53114    4.84104
      H1    15.58065   10.92837    4.06292
       H    17.25196   16.59964    4.06721
       O    17.83496   15.91567    3.62396
      H1    18.44131   15.72747    4.35111
       H    17.12549   15.54031    7.70402
       O    17.68762   16.11201    7.17632
      H1    17.19436   16.77591    6.66847
       H    16.95079   14.41538    4.40167
       O    16.50204   13.75747    5.00919
      H1    17.23257   13.59968    5.67498
       H    12.26687   15.33148    2.69338
       O    11.36881   15.28896    2.24055
      H1    11.29714   14.33621    2.17658
       H    12.85763   10.82517    3.11227
       O    12.85910   11.06470    2.17498
      H1    11.98239   10.92046    1.78789
       H    13.64538   13.26318    0.56637
       O    12.66655   13.21876    0.57684
      H1    12.48791   12.54359    1.22519
       H    18.96437   12.66122    8.96318
       O    19.43299   13.28279    9.55028
      H1    18.92473   13.45215   10.33507

