84
frame 1 | Written by MDAnalysis XYZWriter (release 2.4.3)
       H    16.16039    8.23970   -5.97537
       O    15.56120    8.66690   -6.64840
      H1    14.67112    8.42567   -6.49988
       H    16.80882   14.26557   -6.82960
       O    16.33296   14.68148   -6.11521
      H1    15.37322   14.55307   -6.31519
       H    18.08179   16.87544   -7.57676
       O    17.13834   16.88149   -7.63042
      H1    16.84764   16.20824   -6.96721
       H    17.11766   15.60098  -12.11121
       O    16.82973   15.88495  -11.24799
      H1    16.37434   15.15499  -10.82871
       H    13.63171   12.08925  -10.75454
       O    13.98917   12.96733  -10.94345
      H1    13.43891   13.64882  -10.55750
       H    16.05845   12.99862  -11.07247
       O    16.97963   12.71618  -10.91858
      H1    17.09525   12.97860   -9.99160
       H    14.75709    9.42863   -8.50333
       O    14.51661    9.61054   -9.40208
      H1    13.73441    9.07891   -9.59665
       H    14.81815   11.66343   -8.85065
       O    15.08367   12.22937   -8.10474
      H1    14.99473   13.15411   -8.35322
       H    12.20529   14.31175   -8.97239
       O    12.57221   14.92593   -9.65036
      H1    11.97058   14.97112  -10.38478
       H    19.13302   10.45037   -9.31748
       O    19.42102    9.83572   -9.99978
      H1    18.58810    9.42937  -10.31118
       H    10.94088   12.67310   -9.83900
       O    10.15317   13.34583   -9.91352
      H1    10.05912   13.56847  -10.84332
       H    12.03365   10.67610   -9.98034
       O    12.08277   11.46400   -9.35630
      H1    11.46400   11.20129   -8.64325
       H    12.07767    9.60304  -12.21403
       O    11.59332    9.81499  -11.40358
      H1    11.00358    9.10812  -11.16029
       H    19.04427   10.86395   -7.06372
       O    18.29709   10.64816   -7.67593
      H1    17.68042   10.15590   -7.15941
       H    14.71257   11.73487  -13.92126
       O    14.17050   12.38957  -13.54822
      H1    14.30927   12.39955  -12.61320
       H    11.60736   10.17935   -6.19426
       O    11.10787   10.56686   -6.95940
      H1    10.43220   11.06564   -6.46156
       H    18.25887   12.48366   -8.29617
       O    18.14778   13.44137   -8.39588
      H1    18.66100   13.58079   -9.25831
       H    13.01827    8.27368  -13.11697
       O    13.28910    9.16892  -13.27946
      H1    14.24768    9.08027  -13.22339
       H    14.29239   15.23744   -9.14297
       O    15.20102   15.04193   -8.96455
      H1    15.66284   15.86245   -8.85592
       H    18.47250   14.91583  -10.88331
       O    19.26652   14.71900  -10.37337
      H1    19.34015   15.49387   -9.79914
       H    17.02134    7.77576   -9.80600
       O    17.05260    8.46767  -10.50889
      H1    16.16336    8.86882  -10.28006
       H    14.87916   11.57615   -4.91958
       O    14.14158   11.69014   -5.53030
      H1    14.56836   11.91812   -6.37337
       H    13.73229    9.88600   -5.78658
       O    13.09701    9.17221   -5.76609
      H1    12.78993    9.30360   -4.84517
       H    19.18024   11.09671  -12.48997
       O    18.57611   11.73605  -12.98020
      H1    18.01453   12.07340  -12.24442
       H    12.14026    7.40288   -9.18147
       O    12.91360    7.32310   -9.78735
      H1    13.55700    6.85447   -9.28002
       H    19.26211    8.42906   -8.49356
       O    19.35729    7.60092   -7.96777
      H1    19.22050    6.82668   -8.52990
       H    15.61821    6.96477   -7.55596
       O    15.07162    6.35866   -8.14364
      H1    15.57674    5.53896   -8.20322
       H    13.22021   13.31348   -5.12006
       O    12.73201   14.13014   -5.03271
      H1    12.12319   13.99593   -4.32030

