84
frame 1 | Written by MDAnalysis XYZWriter (release 2.4.3)
       H   -11.23438   12.30790  -10.63974
       O   -12.06322   12.08306  -10.11660
      H1   -12.65057   12.67916  -10.58174
       H   -10.33567   15.81366   -9.68087
       O   -10.98847   15.44371  -10.31161
      H1   -10.97871   16.00755  -11.06756
       H    -7.29458   11.10823   -4.89474
       O    -7.91003   11.78480   -5.22313
      H1    -8.34329   11.54862   -6.09275
       H   -14.26043   12.08867   -5.77690
       O   -14.25850   12.68811   -6.52774
      H1   -13.34000   12.77931   -6.80400
       H   -13.11613   10.25244   -7.42984
       O   -13.31710    9.78574   -8.28654
      H1   -13.11026   10.42867   -9.00117
       H   -13.57519   17.41266   -5.48566
       O   -13.41240   17.70415   -4.55941
      H1   -13.02632   16.94968   -4.12541
       H    -7.03005   13.66460  -10.37634
       O    -7.91907   13.39077  -10.15069
      H1    -8.53383   13.40572  -10.92030
       H   -15.18662   14.64359   -3.28211
       O   -14.51227   14.00105   -3.47480
      H1   -14.17639   13.79855   -2.60484
       H   -10.89673   16.51309   -6.46030
       O   -11.59002   15.92608   -6.80585
      H1   -12.27440   16.47707   -7.16365
       H    -9.33603   17.70789   -5.68985
       O    -9.54064   16.89457   -5.28647
      H1    -8.79619   16.29205   -5.42003
       H   -12.40317   16.07016  -10.23368
       O   -13.19374   16.65842  -10.11748
      H1   -13.88973   16.40072  -10.74637
       H    -8.53615   15.43823   -7.93483
       O    -8.47517   15.94501   -8.77186
      H1    -8.18075   15.24717   -9.38539
       H   -11.89397   15.36003   -4.85280
       O   -12.04260   15.41628   -3.88793
      H1   -12.82106   14.87766   -3.85556
       H   -10.61037   17.42206   -3.45056
       O   -10.55585   17.87937   -2.62813
      H1    -9.99967   18.62810   -2.91328
       H    -7.31877   14.43599   -5.60032
       O    -7.54781   15.25591   -6.05213
      H1    -6.81756   15.85658   -5.85533
       H   -15.04078   15.90148   -7.12325
       O   -15.45939   15.12678   -6.65630
      H1   -14.82397   14.41419   -6.44621
       H   -10.35787   10.63343   -7.45045
       O    -9.70585   11.38722   -7.49858
      H1   -10.31786   12.13159   -7.59876
       H   -11.69249   12.90803   -8.62698
       O   -11.68960   13.19478   -7.70358
      H1   -11.49765   14.12292   -7.61548
       H   -11.53521    9.12498   -8.03884
       O   -10.61865    8.95913   -7.85873
      H1   -10.66047    8.54949   -6.99957
       H   -13.93622   18.28052   -7.51892
       O   -13.98303   17.32227   -7.37942
      H1   -13.81417   17.14356   -8.32085
       H    -6.89578   13.41337   -7.79806
       O    -6.04082   13.05474   -7.63115
      H1    -6.17564   12.09823   -7.93235
       H   -15.33312   10.85451   -9.58068
       O   -15.86930   11.31261   -8.93536
      H1   -15.24320   11.31198   -8.17972
       H   -11.36363   18.54792  -11.65402
       O   -12.12563   19.00419  -11.20989
      H1   -12.79602   18.33904  -10.93321
       H    -9.44027   13.29861  -12.65511
       O    -9.93440   13.26974  -11.83415
      H1   -10.24892   14.13288  -11.61342
       H   -11.45697   11.08406   -5.37526
       O   -12.30553   10.63180   -5.45889
      H1   -12.25833    9.68415   -5.19656
       H    -7.79212   11.78928  -10.65412
       O    -7.46226   10.98547  -11.12517
      H1    -7.80802   10.24131  -10.60096
       H    -9.90955   14.79545   -3.79249
       O    -9.02117   14.70340   -3.36548
      H1    -8.69444   13.83444   -3.65086
       H   -16.45498   14.07690   -7.47573
       O   -17.05145   13.42457   -7.90563
      H1   -16.53759   12.66180   -8.20013

