84
frame 0 | Written by MDAnalysis XYZWriter (release 2.4.3)
       H     8.27692    4.74388   -9.44000
       O     9.27072    4.66314   -9.36631
      H1     9.30855    4.01575   -8.60508
       H    12.33631    4.62743   -5.89940
       O    12.29860    4.68202   -4.97704
      H1    13.00809    5.32913   -4.71287
       H    14.36351    1.84676   -9.77855
       O    14.09597    1.65666   -8.85351
      H1    13.99052    0.70407   -8.98749
       H    15.48560    3.84774   -2.97947
       O    16.26935    3.58093   -3.40666
      H1    16.31152    4.13422   -4.19167
       H    12.39707    3.07584   -0.76974
       O    12.31593    3.99909   -0.84046
      H1    13.18136    4.35651   -0.94144
       H    15.81524    6.01215   -5.68596
       O    16.18257    5.85118   -4.79723
      H1    17.05764    6.21903   -4.87275
       H    10.36748    2.30015   -7.12900
       O     9.52943    2.84197   -7.28915
      H1     8.90804    2.11606   -7.37789
       H    10.29168    7.14355   -7.61679
       O     9.51261    7.07337   -8.17395
      H1     9.41905    6.13088   -8.40029
       H     9.37042    1.74444   -4.37831
       O     9.74424    0.80860   -4.13545
      H1    10.65346    1.09574   -3.99796
       H    13.60630    1.27691   -1.40630
       O    12.61669    1.37148   -1.31474
      H1    12.28822    0.52822   -1.16762
       H    12.03115    2.56040   -4.30131
       O    12.38010    1.72357   -3.97014
      H1    12.41851    1.82805   -2.95601
       H    12.05840    6.52557   -1.76777
       O    11.42982    7.24649   -2.00922
      H1    11.20223    7.11041   -2.94045
       H     9.91495    4.77723   -2.02624
       O    10.37549    4.23948   -2.64160
      H1    11.25135    4.31071   -2.19696
       H    11.94849    9.23387   -6.42249
       O    11.52613    8.37725   -6.58664
      H1    11.48064    7.91727   -5.74171
       H    11.87098    0.96101   -5.83274
       O    11.72365    1.12014   -6.78802
      H1    12.49673    1.44406   -7.19260
       H    13.34980    0.19214   -4.07555
       O    13.98076   -0.49446   -4.43939
      H1    13.38009   -1.19089   -4.65782
       H    14.48796    3.69684   -6.79066
       O    15.37038    3.51809   -6.51618
      H1    15.37506    2.59872   -6.39245
       H    16.18113    4.25828   -7.91562
       O    16.64794    4.84621   -8.47756
      H1    16.55971    4.40834   -9.32941
       H    13.49143    8.62052   -1.61388
       O    14.28840    8.88355   -2.05859
      H1    15.08179    8.63862   -1.54996
       H    14.83265    6.39669   -3.98198
       O    13.93304    6.59904   -3.60707
      H1    14.05769    7.40087   -3.10992
       H    12.18586    4.25179   -8.76015
       O    12.67442    3.91027   -8.01227
      H1    13.17973    3.17215   -8.41375
       H    12.36329    7.59537   -7.83898
       O    12.78960    7.32529   -8.63698
      H1    13.60185    6.89505   -8.40457
       H     9.30689    3.26246   -5.59785
       O     8.86448    3.33926   -4.71757
      H1     9.39984    3.85844   -4.09190
       H    15.20456    7.50922   -7.19375
       O    14.90135    6.56784   -7.17384
      H1    15.62492    5.95509   -7.53090
       H    10.78764    5.83609   -4.82866
       O    10.55434    6.73287   -4.52888
      H1     9.75517    7.02642   -4.99366
       H    15.50937    5.10935   -1.67459
       O    14.83896    4.93114   -0.99368
      H1    15.17927    4.31758   -0.28804
       H    10.03999    7.01620   -0.92385
       O     9.33183    6.40577   -0.56051
      H1     8.97246    6.68909    0.33328
       H     9.47082    1.27224   -1.90757
       O     9.13545    1.43605   -0.99429
      H1     9.79405    1.86039   -0.42881

