84
frame 1 | Written by MDAnalysis XYZWriter (release 2.4.3)
       H    -5.96793  -16.92472   11.77643
       O    -6.07964  -16.36979   10.93530
      H1    -6.57507  -16.83829   10.20785
       H    -0.66206  -17.82393   18.95503
       O     0.31333  -17.56523   18.98866
      H1     0.80608  -18.23446   18.49507
       H    -6.01060  -18.68811   13.63555
       O    -5.38589  -19.45840   13.54576
      H1    -4.46413  -19.25440   13.53171
       H    -5.49731  -16.06603   14.60038
       O    -4.98244  -16.48237   13.88801
      H1    -4.80624  -15.69891   13.25681
       H    -8.10311  -17.90081   14.43037
       O    -7.59280  -17.84329   13.60401
      H1    -8.14984  -17.61425   12.83537
       H    -1.94658  -16.13676   13.76794
       O    -2.12986  -16.70173   14.52507
      H1    -2.88597  -17.19488   14.16459
       H    -1.66782  -15.78394   17.29562
       O    -2.56827  -16.23846   17.27732
      H1    -2.68708  -16.51440   16.39331
       H    -2.61343  -11.71212   11.86983
       O    -2.54050  -12.34195   12.64255
      H1    -3.27913  -12.94818   12.69254
       H    -4.75797  -15.40171   10.33761
       O    -4.01757  -14.78352   10.05012
      H1    -3.14263  -15.19873   10.09115
       H    -2.68874  -17.91161   19.88963
       O    -2.47247  -18.27477   18.98229
      H1    -2.70247  -17.50928   18.41056
       H     0.06470  -19.29710    8.50836
       O    -0.25392  -18.37256    8.71081
      H1     0.56122  -18.07642    9.10923
       H    -4.32724  -14.33586   11.59322
       O    -4.60845  -14.01393   12.49381
      H1    -5.41345  -13.49793   12.36644
       H    -7.80092  -18.09011   17.67158
       O    -7.66195  -19.05241   17.74196
      H1    -6.77756  -19.15817   17.37805
       H    -6.84899  -18.67863    8.42143
       O    -6.29377  -17.96216    8.83116
      H1    -5.41731  -18.24149    9.01250
       H    -2.53657  -17.58507    8.57251
       O    -3.45992  -17.39537    8.39381
      H1    -3.42027  -17.11914    7.46224
       H    -0.06407  -15.57573   18.70260
       O    -0.26841  -14.93164   17.98136
      H1     0.52169  -14.79250   17.47497
       H     3.05293  -19.03057   12.12913
       O     3.47093  -18.33379   11.61555
      H1     3.99381  -18.88222   10.92530
       H    -0.95876  -13.88536   12.95469
       O    -0.68617  -14.83287   12.98557
      H1    -0.78325  -15.26988   12.12286
       H    -1.55183  -18.94094   11.75701
       O    -0.73988  -18.80666   11.28417
      H1    -0.93992  -18.81300   10.37512
       H     2.55404  -14.93458   12.85866
       O     1.99208  -14.36724   13.35131
      H1     1.10414  -14.68196   13.27746
       H     2.80558  -17.65637   15.79325
       O     2.58393  -17.49628   14.85964
      H1     3.12459  -16.77877   14.51716
       H     2.22707  -15.55324   10.00443
       O     2.00527  -16.49804    9.88923
      H1     2.32816  -17.00460   10.59580
       H    -5.21885  -14.53603   17.12106
       O    -5.51145  -14.59838   16.20062
      H1    -6.44935  -14.40592   16.19091
       H    -2.16942  -18.94363   14.09199
       O    -2.58158  -19.26922   13.31097
      H1    -2.33848  -20.21108   13.39373
       H     3.25465  -18.52866   17.77608
       O     2.37998  -18.72759   17.46410
      H1     2.38460  -19.64466   17.17846
       H     0.83758  -20.02897   14.08599
       O     0.48011  -19.95480   14.96963
      H1     0.51374  -18.98739   15.14726
       H    -0.61656  -16.44027   10.14295
       O    -1.15575  -15.68171   10.37080
      H1    -0.73908  -14.79624   10.30565
       H     1.58348  -14.88770   15.96483
       O     1.86084  -14.22514   16.60159
      H1     1.98280  -13.38107   16.06808

