84
frame 1 | Written by MDAnalysis XYZWriter (release 2.4.3)
       H    -4.81577   18.85799    5.48544
       O    -5.73192   18.79198    5.14320
      H1    -5.62206   18.59068    4.18084
       H    -7.31381   17.94128   10.83809
       O    -7.76097   17.05150   10.71367
      H1    -7.35197   16.34289   11.28781
       H     0.81998   19.27017   12.17780
       O     1.60022   19.19434   12.67683
      H1     1.95120   18.31738   12.68215
       H    -2.55135   14.03731    8.21264
       O    -3.23067   14.70757    8.10615
      H1    -3.09279   14.98754    7.11460
       H    -8.05597   14.73288   12.46747
       O    -7.24788   14.97180   12.03246
      H1    -7.00076   14.30282   11.37885
       H     2.98932   18.50167    7.13205
       O     2.89552   17.98642    8.00667
      H1     2.01716   18.35930    8.40002
       H     2.69100   16.07962   12.10550
       O     1.97311   16.41572   12.64554
      H1     1.14465   16.06545   12.25247
       H     2.29125   14.68381    7.25489
       O     2.79693   15.23597    7.85373
      H1     2.59314   16.14748    7.68287
       H    -1.65681   11.89698   11.17253
       O    -0.80101   12.36215   11.09068
      H1    -0.89841   12.72651   10.18907
       H    -5.26777   16.88810   14.82189
       O    -5.38975   17.77348   15.20883
      H1    -5.19688   18.40004   14.51359
       H    -4.33713   11.44870   11.31950
       O    -3.36689   11.41527   11.34996
      H1    -3.10287   10.79135   10.63948
       H    -2.47479   17.24140   10.38826
       O    -1.83163   16.85567    9.76106
      H1    -2.36301   16.25001    9.31317
       H    -1.36571   12.27567    7.58066
       O    -0.96768   12.83170    8.29760
      H1    -0.50780   13.43766    7.77363
       H    -0.87666   13.56684   15.94448
       O    -1.45371   13.96325   15.31150
      H1    -1.44719   14.91489   15.35797
       H    -1.06325   15.73884   10.83298
       O    -0.38341   15.35545   11.39403
      H1    -0.69680   14.46222   11.62678
       H    -3.23675   16.85048   13.04125
       O    -2.56862   17.31748   12.50100
      H1    -1.80770   16.75721   12.55988
       H     1.33753   14.49981   10.66893
       O     2.30213   14.27809   10.52856
      H1     2.44379   14.74215    9.68584
       H    -0.32852   13.27653   13.87857
       O     0.34537   12.81470   13.39610
      H1    -0.14326   12.56443   12.56968
       H    -6.21032   19.68700   12.10434
       O    -6.58077   19.56714   11.20270
      H1    -5.75684   19.74172   10.69432
       H    -5.45440   15.38039   13.73692
       O    -4.55103   15.47842   14.14985
      H1    -4.52450   14.73320   14.80537
       H    -0.50645   17.99069    8.97347
       O     0.10543   18.29463    8.28399
      H1    -0.31039   18.00115    7.47918
       H     0.00257   17.57988    5.28868
       O    -0.86053   17.60855    5.81344
      H1    -1.47360   16.84730    5.63897
       H    -4.33623   18.30270    9.28929
       O    -4.19019   19.25926    9.37512
      H1    -3.74039   19.49648    8.53835
       H    -4.85311   15.13257    8.56953
       O    -5.69731   15.64076    8.74953
      H1    -6.39019   15.04922    9.03728
       H    -3.27270   20.21501    6.27723
       O    -3.39200   19.28453    6.48791
      H1    -2.54536   18.85299    6.25234
       H    -5.74464   17.03530    5.72303
       O    -5.64510   16.09277    6.00867
      H1    -5.85262   16.09102    6.94398
       H    -1.84804   17.04090   16.22624
       O    -1.20459   16.94561   15.43465
      H1    -0.81411   17.80866   15.36952
       H    -3.83361   15.96904    5.43223
       O    -2.91875   15.72151    5.30767
      H1    -2.85585   14.96535    4.63281

