84
frame 1 | Written by MDAnalysis XYZWriter (release 2.4.3)
       H    -5.96793  -16.92472   11.77643
       O    -6.07964  -16.36979   10.93530
      H1    -6.57507  -16.83829   10.20785
       H    -6.01060  -18.68811   13.63555
       O    -5.38589  -19.45840   13.54576
      H1    -4.46413  -19.25440   13.53171
       H    -5.49731  -16.06603   14.60038
       O    -4.98244  -16.48237   13.88801
      H1    -4.80624  -15.69891   13.25681
       H    -5.84409  -17.49162    6.68293
       O    -5.76379  -17.02407    5.83084
      H1    -6.04156  -17.66318    5.19552
       H    -9.84189  -16.33870    7.74117
       O    -9.87810  -16.93042    6.91964
      H1    -9.21447  -17.56955    7.00406
       H    -8.22176  -12.15842   10.00550
       O    -7.54282  -12.62512   10.58494
      H1    -7.64442  -12.18688   11.49929
       H    -8.10311  -17.90081   14.43037
       O    -7.59280  -17.84329   13.60401
      H1    -8.14984  -17.61425   12.83537
       H    -7.98792  -14.04656   11.95223
       O    -7.78847  -14.80466   12.44551
      H1    -7.35428  -15.39856   11.83449
       H    -9.23813  -19.35766    6.95777
       O    -8.29036  -19.17594    6.82138
      H1    -7.87770  -19.86476    6.19011
       H   -11.72535  -14.66143    8.18848
       O   -11.15873  -15.04323    8.90047
      H1   -11.50788  -15.89852    9.05498
       H    -3.85365  -17.31482    5.14436
       O    -2.90256  -17.39549    5.38186
      H1    -2.50485  -17.85816    4.66257
       H    -4.75797  -15.40171   10.33761
       O    -4.01757  -14.78352   10.05012
      H1    -3.14263  -15.19873   10.09115
       H     0.06470  -19.29710    8.50836
       O    -0.25392  -18.37256    8.71081
      H1     0.56122  -18.07642    9.10923
       H    -4.32724  -14.33586   11.59322
       O    -4.60845  -14.01393   12.49381
      H1    -5.41345  -13.49793   12.36644
       H    -8.07769  -18.08206   10.66706
       O    -8.81761  -17.54989   10.96098
      H1    -8.65627  -16.70191   10.55021
       H    -6.84899  -18.67863    8.42143
       O    -6.29377  -17.96216    8.83116
      H1    -5.41731  -18.24149    9.01250
       H    -2.53657  -17.58507    8.57251
       O    -3.45992  -17.39537    8.39381
      H1    -3.42027  -17.11914    7.46224
       H    -2.77339  -15.31114    6.07607
       O    -3.07878  -14.46170    5.84458
      H1    -3.94890  -14.58617    5.41363
       H    -9.15089  -15.79768    5.88418
       O    -8.59117  -15.17832    5.40788
      H1    -7.75338  -15.69126    5.29741
       H    -1.55183  -18.94094   11.75701
       O    -0.73988  -18.80666   11.28417
      H1    -0.93992  -18.81300   10.37512
       H   -10.22742  -20.08054    9.61574
       O   -10.49765  -19.16564    9.53183
      H1    -9.87477  -18.54299    9.85707
       H    -9.22069  -15.13120    9.16866
       O    -8.27802  -15.26560    9.34516
      H1    -7.87831  -14.40580    9.51490
       H    -4.13415  -13.91135    8.64922
       O    -4.38219  -13.36106    7.90472
      H1    -3.71258  -13.61857    7.23389
       H   -12.02863  -18.16543    9.65107
       O   -12.50799  -17.35718    9.87024
      H1   -13.42481  -17.37399    9.60361
       H    -2.16942  -18.94363   14.09199
       O    -2.58158  -19.26922   13.31097
      H1    -2.33848  -20.21108   13.39373
       H    -7.04776  -13.59223    7.09129
       O    -7.12316  -12.60694    7.04144
      H1    -6.28672  -12.34149    7.44846
       H    -5.75819  -11.68559    9.92084
       O    -5.07232  -11.32401    9.27347
      H1    -4.75390  -12.14302    8.75137
       H    -0.61656  -16.44027   10.14295
       O    -1.15575  -15.68171   10.37080
      H1    -0.73908  -14.79624   10.30565

