84
frame 2 | Written by MDAnalysis XYZWriter (release 2.4.3)
       H     6.20978   -8.21611  -13.16509
       O     5.97101   -9.04377  -12.65540
      H1     6.83872   -9.42358  -12.58396
       H     6.95665   -6.08392  -14.42445
       O     7.09238   -6.66754  -13.64538
      H1     7.82234   -6.25762  -13.15949
       H     6.12965   -5.05831  -16.49830
       O     6.52772   -5.00846  -15.61416
      H1     5.92333   -4.29524  -15.25444
       H    11.07290   -7.64209  -16.68718
       O    10.96069   -8.05815  -17.55861
      H1    10.50350   -7.38712  -18.11959
       H    10.21491   -8.65604  -10.71000
       O     9.43449   -8.16159  -10.51501
      H1     9.31574   -7.61751  -11.30469
       H    10.73308   -5.90542  -10.49807
       O    11.38668   -6.07494   -9.84617
      H1    11.38175   -7.02476   -9.61659
       H     7.71106   -8.25082   -9.94050
       O     6.89816   -8.54059   -9.44071
      H1     6.12857   -8.14423   -9.93012
       H     5.67726   -4.96220  -10.61742
       O     4.73324   -5.16477  -10.47558
      H1     4.43454   -4.54851   -9.82150
       H     5.05373   -5.67684  -18.36620
       O     5.96144   -5.86794  -18.14565
      H1     6.37889   -5.19824  -18.74724
       H    11.26144   -3.92815  -15.27934
       O    11.77408   -4.73354  -15.42385
      H1    11.25179   -5.43153  -15.06174
       H     9.97010  -10.23889  -13.88741
       O    10.10220  -10.24633  -14.89206
      H1     9.23469  -10.38810  -15.28548
       H    10.45142   -3.10649  -11.94778
       O    10.55094   -3.41814  -12.83595
      H1    10.20599   -2.71381  -13.37725
       H     4.14133   -3.01421  -13.84904
       O     4.93060   -3.07565  -14.37704
      H1     5.24232   -2.26333  -14.75647
       H     7.39408   -4.02498   -9.56520
       O     7.38719   -4.49529  -10.39825
      H1     7.34039   -3.83415  -11.11340
       H     5.25591   -8.94835  -17.25647
       O     5.90045   -8.64865  -17.96264
      H1     5.80698   -7.66003  -17.90994
       H     5.39123  -10.16634  -13.88737
       O     5.09933  -10.65463  -14.68023
      H1     4.34847  -11.19581  -14.53792
       H     8.12582   -1.25932  -13.28234
       O     8.46882   -0.37160  -13.45906
      H1     9.30427   -0.33244  -13.03909
       H     7.62261   -8.93983  -17.46235
       O     8.36989   -9.56167  -17.30162
      H1     9.13336   -9.03644  -17.11190
       H    12.20059   -9.72891  -11.03294
       O    11.57650   -9.14413  -11.51401
      H1    12.17648   -8.55958  -12.04184
       H     8.81115   -2.38730  -17.80676
       O     7.97091   -2.78852  -17.37688
      H1     8.32147   -3.53262  -16.86566
       H     2.37438   -6.27891  -13.96313
       O     2.47711   -6.71057  -14.79395
      H1     2.94366   -6.05439  -15.33920
       H    11.91459   -7.66234  -14.56009
       O    11.02380   -7.51720  -14.94181
      H1    10.64647   -8.32490  -14.58120
       H     9.49994   -8.11425   -8.70558
       O     9.36772   -8.42365   -7.84390
      H1     8.71508   -9.16407   -7.72829
       H     6.85680   -1.93448  -12.00076
       O     7.15084   -2.75035  -12.53734
      H1     6.35363   -3.03066  -13.10380
       H     3.34824   -3.48412  -16.69014
       O     4.22076   -3.77180  -17.03250
      H1     4.82193   -3.79330  -16.28737
       H     9.07289   -9.98371  -11.64206
       O     8.70642  -10.54798  -12.40356
      H1     8.59215  -11.44896  -12.07507
       H     9.72326   -5.00652  -12.30339
       O     9.09197   -5.77912  -12.02252
      H1     8.63736   -5.27852  -11.29716
       H     4.58536   -6.84462  -10.88362
       O     4.36773   -7.79319  -10.78006
      H1     4.92742   -8.30582  -11.45180

