84
frame 1 | Written by MDAnalysis XYZWriter (release 2.4.3)
       H   -14.25823  -12.35939   10.35692
       O   -13.77482  -12.18705    9.54969
      H1   -14.01186  -11.27909    9.32693
       H   -16.73518  -16.92896   16.68678
       O   -16.26493  -16.93601   15.83398
      H1   -16.52555  -17.75500   15.36250
       H   -10.18282  -15.74263   14.06914
       O   -11.10854  -15.80271   13.78283
      H1   -11.31461  -15.08398   13.16995
       H   -17.41496  -10.51785   11.74062
       O   -17.31050  -11.30208   12.33638
      H1   -18.24136  -11.65391   12.35073
       H   -14.91653  -19.71437   11.55151
       O   -14.86678  -18.91327   12.10021
      H1   -13.89014  -18.83496   12.19843
       H   -16.07405  -12.05512   15.67040
       O   -16.86259  -12.57815   15.94906
      H1   -16.99789  -13.21241   15.22343
       H   -18.80048  -16.23333    9.77901
       O   -18.42709  -15.74360   10.55638
      H1   -18.44374  -14.79218   10.22383
       H   -11.72535  -14.66143    8.18848
       O   -11.15873  -15.04323    8.90047
      H1   -11.50788  -15.89852    9.05498
       H   -15.42969  -13.15623    8.64733
       O   -16.22505  -13.38803    8.17560
      H1   -16.20679  -14.31435    7.93612
       H   -14.22150  -12.60244   12.81061
       O   -14.49560  -11.81135   12.37444
      H1   -15.46448  -11.80861   12.32631
       H   -12.11829  -18.20927   11.62961
       O   -12.09314  -18.86759   12.33585
      H1   -11.77309  -18.41967   13.08752
       H   -15.05876  -15.32742   11.55110
       O   -14.73604  -14.66418   12.19709
      H1   -15.32298  -14.64357   12.96268
       H   -13.60737  -17.44440    6.75175
       O   -14.41856  -17.88849    7.10815
      H1   -14.27847  -18.78308    6.71259
       H   -11.70062  -15.96056   15.52331
       O   -11.88019  -16.44281   16.37896
      H1   -11.03920  -16.89465   16.61493
       H   -19.79025  -18.92553   14.21181
       O   -19.09571  -18.90692   13.56167
      H1   -18.21714  -19.14616   13.96929
       H   -12.03820  -14.58495   10.77924
       O   -11.98225  -14.28377   11.73104
      H1   -12.89207  -14.53191   12.09888
       H   -14.66400  -17.64030   15.90375
       O   -13.90852  -18.26747   15.92019
      H1   -13.13135  -17.61498   16.01229
       H   -15.92572  -19.90397   15.01206
       O   -16.21636  -19.11921   14.53322
      H1   -15.68554  -19.03707   13.70979
       H   -17.43233  -13.17307    9.35886
       O   -18.12921  -13.01630   10.01431
      H1   -17.78642  -12.54340   10.79513
       H   -18.88975  -17.63447    7.94547
       O   -19.08515  -16.69789    8.08834
      H1   -19.64594  -16.45477    7.36177
       H   -10.22742  -20.08054    9.61574
       O   -10.49765  -19.16564    9.53183
      H1    -9.87477  -18.54299    9.85707
       H   -15.86837  -16.51967    7.71074
       O   -16.53719  -16.04774    7.19548
      H1   -17.40014  -16.11804    7.66962
       H   -17.75130  -17.80054    5.02624
       O   -17.31386  -16.98385    4.86826
      H1   -16.90229  -16.65878    5.71746
       H   -13.02484  -12.86801    7.09060
       O   -12.78922  -13.77992    6.80794
      H1   -13.48974  -14.17973    6.28563
       H   -15.16532  -14.08489    4.71052
       O   -14.61609  -14.79684    5.12683
      H1   -15.16506  -15.11777    5.83858
       H   -12.02863  -18.16543    9.65107
       O   -12.50799  -17.35718    9.87024
      H1   -13.42481  -17.37399    9.60361
       H   -16.74418  -16.43633   10.46574
       O   -15.83635  -16.67260   10.41035
      H1   -15.61375  -17.42151   11.02106
       H   -17.62010  -15.14962   13.97103
       O   -16.74201  -14.79170   14.21600
      H1   -16.43960  -15.49682   14.87363

