84
frame 1 | Written by MDAnalysis XYZWriter (release 2.4.3)
       H     8.50753   -9.67635    6.40418
       O     7.77870   -9.73504    5.75873
      H1     8.33163   -9.76865    4.90937
       H    15.20175   -6.18561    1.93202
       O    14.29586   -6.07979    1.94796
      H1    13.90345   -6.38219    1.14820
       H    12.47317  -10.53355    0.97190
       O    11.96671   -9.76696    0.67230
      H1    11.14058   -9.80328    1.11929
       H    16.64510   -9.72724    0.46601
       O    16.54176   -8.74795    0.59837
      H1    16.01105   -8.65152    1.42942
       H     7.21892   -6.27977    5.08621
       O     7.76895   -6.84066    5.71954
      H1     7.39691   -7.73005    5.66392
       H    13.57712  -12.21064    1.87578
       O    13.46154  -12.24060    0.91547
      H1    14.29187  -12.72498    0.65877
       H    12.96906   -4.69844   -2.31300
       O    12.58262   -3.81616   -2.08983
      H1    11.72646   -3.74913   -2.56790
       H     7.51399   -5.26646    2.82516
       O     8.29723   -4.85315    2.46878
      H1     7.97130   -4.14743    1.90619
       H    14.05900   -5.76204    4.57283
       O    13.50121   -5.61730    5.32431
      H1    13.32980   -6.40313    5.90206
       H    14.07751   -9.26411    6.18629
       O    14.81874   -9.84773    6.34525
      H1    14.62822  -10.17542    7.23475
       H    14.29721   -9.82011    3.43340
       O    14.90438   -9.30174    2.94937
      H1    15.01455   -8.44983    3.40755
       H    12.60627  -10.40934    5.14287
       O    11.92041  -10.49960    4.44480
      H1    12.05096  -11.39570    4.08951
       H     8.93203   -8.31799    0.89370
       O     8.67782   -9.22197    0.79910
      H1     8.39588   -9.38841   -0.12590
       H    16.95760   -6.78857    4.45216
       O    15.97954   -7.05835    4.38624
      H1    15.80212   -7.27477    5.29029
       H     8.93061   -4.82295   -0.45748
       O     8.53986   -4.28583   -1.14489
      H1     9.25473   -3.99026   -1.74150
       H     9.38213   -6.95959    5.08736
       O    10.34958   -6.94182    4.99215
      H1    10.57849   -7.66382    4.40594
       H    10.44251   -0.55890    1.46137
       O    10.06315   -1.42336    1.32655
      H1    10.64187   -2.07344    1.82620
       H    12.99385   -9.48552   -0.83433
       O    13.45099   -9.01884   -1.57569
      H1    14.41253   -9.17075   -1.39578
       H     9.27277   -9.82650    2.35262
       O     9.35340  -10.08639    3.29047
      H1    10.24142  -10.23606    3.58153
       H     9.53521   -6.85483   -1.19996
       O     9.38478   -7.23299   -2.11146
      H1     9.99367   -7.99606   -2.29972
       H    11.76931   -8.43066   -3.08225
       O    11.04743   -8.95565   -3.49446
      H1    11.18168   -9.80206   -3.07643
       H    14.78350   -3.92783    0.85752
       O    14.72524   -2.92158    0.90977
      H1    15.13346   -2.68761    0.08463
       H    12.62686   -4.00007    2.21049
       O    12.00427   -3.32585    2.51333
      H1    11.40261   -3.67601    3.18476
       H     9.62630   -4.35647    3.70843
       O    10.30434   -4.08359    4.35036
      H1    10.72080   -4.96195    4.63228
       H    12.75419   -8.14795    7.50184
       O    12.60832   -8.09703    6.51239
      H1    11.71629   -7.77332    6.45847
       H    12.46644   -5.40643   -0.59499
       O    12.71430   -6.30555   -0.40229
      H1    12.86598   -6.79084   -1.27419
       H    12.22054   -6.83142    2.77788
       O    11.54832   -7.26290    2.18646
      H1    12.11041   -7.78071    1.57215
       H    10.40976   -6.41184    0.60611
       O     9.40788   -6.45193    0.44525
      H1     9.04912   -6.13450    1.32822

