84
frame 1 | Written by MDAnalysis XYZWriter (release 2.4.3)
       H     9.38239   -2.80629   16.66191
       O     9.86744   -2.87005   17.47713
      H1    10.04684   -3.79300   17.61097
       H     7.51440   -9.82209   11.73283
       O     7.92917   -9.58476   10.91357
      H1     8.52575   -8.84894   11.23455
       H     3.43254   -3.13363   12.17027
       O     3.54314   -3.94179   12.65775
      H1     2.63719   -4.05803   12.90261
       H     7.41554   -2.35038   11.69165
       O     7.05106   -1.81283   10.94070
      H1     6.53382   -2.50486   10.49962
       H     5.12472   -4.33869    8.80402
       O     5.83196   -4.51498    9.42113
      H1     5.41067   -5.12892   10.04547
       H     1.05255   -7.69493   14.02357
       O     1.55069   -7.19431   14.70367
      H1     2.42553   -7.16734   14.31686
       H    10.26784   -8.85195   16.98622
       O     9.77761   -8.35556   16.27500
      H1     9.17048   -7.74932   16.80982
       H    12.15346   -7.14433   14.27048
       O    11.30456   -6.69693   14.24910
      H1    10.59110   -7.34149   14.59125
       H    11.45598   -4.72610   13.74561
       O    11.66147   -3.82308   13.99614
      H1    11.84310   -3.46789   13.11951
       H     4.99464   -3.98110   16.17567
       O     5.27040   -3.57997   15.32879
      H1     4.55389   -3.65902   14.68002
       H     7.01860   -6.27662   13.66143
       O     7.20548   -6.29591   12.71355
      H1     8.12423   -6.70427   12.70666
       H     9.49125   -8.84402   12.83693
       O     9.32528   -7.99422   12.47065
      H1    10.12606   -7.49269   12.37698
       H    10.22409   -6.21525   17.09298
       O    11.10401   -5.72820   17.02173
      H1    11.30356   -5.93243   16.11912
       H     6.66743   -9.20104   18.83467
       O     6.68810   -8.96965   17.89601
      H1     7.17416   -9.73337   17.60020
       H     7.53147   -4.62094   12.72702
       O     7.97802   -3.74846   12.68411
      H1     8.31170   -3.50216   13.53995
       H     4.58011   -5.24882   11.93858
       O     4.87300   -6.07228   11.50053
      H1     5.77614   -6.28796   11.83570
       H     4.38498   -7.43991   12.64739
       O     3.87965   -7.80130   13.39627
      H1     4.21761   -8.68363   13.59538
       H     5.17897   -7.91717   17.35433
       O     4.72172   -7.17649   16.96512
      H1     4.96693   -6.37985   17.47169
       H     9.56160   -9.87438   15.36046
       O     9.23275  -10.44610   14.67649
      H1     9.98256  -10.83930   14.24783
       H     7.39252  -10.39944   13.89718
       O     6.75385  -10.41180   13.18576
      H1     5.88333  -10.64157   13.58076
       H     7.23640   -0.87162   15.98894
       O     6.30855   -1.10410   16.16927
      H1     6.12196   -1.88959   15.66523
       H     3.30764   -4.34178   17.82822
       O     4.25381   -4.35916   17.91566
      H1     4.56513   -3.52861   18.29158
       H     5.86086   -6.34324   15.66218
       O     6.58022   -5.72653   15.47458
      H1     6.15286   -4.85197   15.33745
       H     7.61924   -6.24824   16.72713
       O     8.11032   -6.65753   17.42954
      H1     7.51482   -7.35656   17.70944
       H     9.68171   -4.05540   10.04505
       O    10.05105   -3.98677   10.89988
      H1     9.27864   -3.99602   11.52626
       H     0.87935   -2.81057   15.36024
       O     1.68642   -3.04364   15.86660
      H1     2.24654   -2.27611   15.90039
       H    10.34997   -2.63959   14.65311
       O     9.42600   -2.33709   14.73930
      H1     9.43849   -1.39006   14.62966
       H     6.06984   -1.45097   19.28046
       O     5.78971   -2.13422   18.69329
      H1     5.98835   -1.81802   17.80354

