84
frame 1 | Written by MDAnalysis XYZWriter (release 2.4.3)
       H    -2.38794   18.08684   -3.45813
       O    -2.57694   17.81131   -2.54773
      H1    -2.23548   18.55270   -2.02853
       H    -0.13931   15.64382   -2.67453
       O    -0.84662   15.75213   -2.00094
      H1    -1.48056   16.42963   -2.29427
       H     1.57451   19.04021    1.67166
       O     1.52059   18.10216    1.80270
      H1     0.71128   17.81397    1.30178
       H    -2.33487   16.65741    3.59928
       O    -2.00558   16.91947    2.71618
      H1    -1.89719   17.88567    2.84386
       H    -2.26249   18.95298   -5.40788
       O    -1.54896   18.47571   -4.87835
      H1    -0.86830   19.13336   -4.65847
       H     0.48148   11.92154   -0.63748
       O     1.30895   11.53819   -1.02071
      H1     1.88651   12.26895   -1.12116
       H     2.35113   16.95350   -1.11078
       O     2.40989   17.18988   -2.05195
      H1     2.46712   18.17275   -2.04993
       H     3.49552   14.86510    1.26139
       O     3.52950   15.43290    0.39687
      H1     3.95751   16.28421    0.57497
       H     0.33127   15.58353   -7.81371
       O     0.80468   15.71590   -8.66982
      H1     1.09671   16.64307   -8.74730
       H    -1.48469   12.85911   -6.16157
       O    -1.12468   12.97592   -7.05391
      H1    -1.59117   12.42005   -7.67674
       H    -2.13116   10.30569   -1.64521
       O    -1.68540   10.58306   -2.42938
      H1    -2.33549   10.33362   -3.13066
       H    -4.41194   15.81213   -5.41387
       O    -5.07633   16.50663   -5.54185
      H1    -5.17667   16.85995   -4.59494
       H    -4.30348   11.66264   -4.74665
       O    -4.67847   12.52374   -4.90005
      H1    -5.30740   12.36874   -5.66879
       H    -0.66815   14.59724    2.67937
       O     0.26720   14.62764    2.55974
      H1     0.57248   15.45835    2.88000
       H     0.08821   13.88539    0.46073
       O    -0.50616   13.26348    0.00974
      H1    -0.73432   13.84539   -0.75421
       H    -5.89991   14.69233    2.22940
       O    -4.98899   14.99931    1.97847
      H1    -5.10098   15.94089    1.69763
       H    -1.28128   17.11451    0.65927
       O    -0.54791   17.32361    0.08407
      H1    -0.55317   16.66766   -0.61992
       H     4.00507   16.43255   -2.55251
       O     4.79407   15.99984   -2.92105
      H1     4.95044   15.13763   -2.43914
       H    -4.32029   12.57798    0.84212
       O    -3.69506   12.12241    0.23732
      H1    -2.86639   12.62524    0.33577
       H    -1.23348   19.12239   -0.02563
       O    -1.88848   19.71918   -0.43170
      H1    -2.38901   20.14550    0.28668
       H    -5.27293   12.20162   -3.11114
       O    -5.67550   11.88919   -2.30712
      H1    -4.91609   11.86383   -1.70805
       H     1.72492   14.11588   -3.36931
       O     0.94411   14.09466   -3.94446
      H1     1.09846   14.72450   -4.59919
       H    -4.66136   17.85298   -2.89042
       O    -5.53837   17.98122   -3.28163
      H1    -6.18123   17.34991   -2.89259
       H    -1.10418   16.60471   -5.90140
       O    -0.61087   15.81702   -6.27873
      H1    -1.25929   15.11439   -6.41085
       H    -4.48971   19.63816   -5.54290
       O    -3.92133   19.09600   -6.03341
      H1    -4.22397   18.23931   -5.74234
       H    -0.27666   12.77313   -4.06846
       O    -0.80746   12.06789   -4.56719
      H1    -1.18633   11.47944   -3.83408
       H    -3.49383   13.60812   -5.26689
       O    -2.79352   14.33679   -5.36792
      H1    -2.21011   14.34946   -4.57990
       H     2.95430   14.31217   -1.16304
       O     2.97701   13.52241   -1.73516
      H1     3.91702   13.42662   -2.03029

