84
frame 0 | Written by MDAnalysis XYZWriter (release 2.4.3)
       H     1.75525   10.14218   -1.23084
       O     2.00163    9.39613   -1.76212
      H1     2.54384    8.78137   -1.18330
       H     6.40597   13.45116   -1.35635
       O     5.75631   13.52971   -2.06527
      H1     6.22002   13.13731   -2.85474
       H     6.99239   13.25622    4.34321
       O     7.14410   12.31128    4.63994
      H1     6.27904   11.91776    4.74828
       H     0.36955   11.90124   -1.09551
       O     1.07063   11.62635   -0.55017
      H1     1.78325   12.17624   -0.85325
       H     8.22900   10.52280   -1.23848
       O     7.25136   10.70109   -1.15592
      H1     6.92202   10.45207   -2.00130
       H     1.19205    6.93607    1.36303
       O     1.90443    6.71333    1.99723
      H1     2.04064    7.52586    2.44704
       H     3.39923   13.73826    1.14044
       O     2.74962   14.41775    0.87322
      H1     3.21843   15.23129    1.18181
       H     3.23604    7.32985    0.59718
       O     3.52621    7.91986   -0.08696
      H1     4.02170    7.44226   -0.75294
       H     3.16297   11.37174    7.46420
       O     2.35243   11.04684    7.80698
      H1     2.47543   11.02363    8.78551
       H     1.49630   13.23546    5.98895
       O     1.76324   13.45403    6.88936
      H1     1.97788   12.57396    7.26320
       H    -0.12193   15.35645    2.58920
       O     0.32729   14.52842    2.44960
      H1     1.21251   14.75160    2.04151
       H    -0.91326   13.71364    1.21498
       O    -1.53698   13.66638    0.48305
      H1    -1.16852   14.34554   -0.14135
       H     5.04257    8.30929    0.35407
       O     6.03248    8.25035    0.51004
      H1     6.58294    9.03538    0.24119
       H     3.41671    8.89632    3.17042
       O     2.55383    9.08649    3.59885
      H1     2.19014    9.76642    3.02376
       H    -0.98234    8.69441    3.51169
       O    -1.36238    9.26707    2.83025
      H1    -2.28553    9.24060    3.15922
       H     6.21067   14.98882    2.45377
       O     6.98999   14.35434    2.49936
      H1     7.14072   13.85613    1.61856
       H    -2.37586   11.98566    4.95263
       O    -2.04680   12.11682    3.97204
      H1    -2.12669   11.30042    3.49749
       H     4.97636   11.27663    3.50900
       O     4.79331   11.01187    4.45170
      H1     3.89397   10.71089    4.33350
       H    -0.65925    8.05156    1.19383
       O    -0.37157    7.29642    0.65322
      H1    -0.50371    7.62260   -0.25307
       H     0.95389   11.53443    2.81966
       O     1.56161   11.11712    2.22031
      H1     1.19941   11.44440    1.32533
       H     4.98148   11.70570    6.27467
       O     4.92845   12.15456    7.14924
      H1     5.73905   11.89197    7.60933
       H     5.04698   16.98292    2.65306
       O     4.78228   16.06362    2.93081
      H1     3.89969   16.20042    3.30864
       H    -0.22292   12.47997    4.37528
       O     0.66573   12.81302    4.45730
      H1     0.73112   13.59603    3.84796
       H     1.17573    7.98999    4.31546
       O     0.30231    7.65131    4.54459
      H1     0.06606    6.88132    4.01383
       H     7.28711   12.29014   -0.14442
       O     7.60973   13.12921    0.22305
      H1     8.45172   13.31655   -0.10140
       H     2.76886   14.21908   -1.14369
       O     2.86813   13.49503   -1.77371
      H1     3.81292   13.46622   -1.90124
       H     5.46881    7.62834    3.89270
       O     4.91729    7.82524    3.12128
      H1     5.49651    7.99401    2.37546
       H     4.30111   11.64045    0.90781
       O     4.03483   12.08421    1.75767
      H1     3.11115   11.81332    1.96371

