84
frame 0 | Written by MDAnalysis XYZWriter (release 2.4.3)
       H     6.34560   -4.96615  -16.35411
       O     6.77742   -4.77741  -15.49016
      H1     6.13817   -4.40536  -14.85856
       H     5.54253   -0.78345  -18.59794
       O     4.69812   -0.91095  -19.12273
      H1     4.03956   -0.47333  -18.54106
       H     3.36463   -5.49331  -18.55846
       O     3.70787   -6.15764  -19.15086
      H1     3.60298   -5.65958  -19.95940
       H     4.96331    3.88282  -19.82249
       O     4.74867    3.14102  -19.20103
      H1     4.15507    3.48670  -18.53231
       H     7.97384   -1.72290  -15.88453
       O     7.37840   -1.18235  -15.36162
      H1     7.65056   -1.42006  -14.47594
       H     5.57283   -5.79211  -18.57227
       O     6.39857   -5.77481  -18.06916
      H1     7.05590   -5.29781  -18.56623
       H     1.04442    2.50522  -14.03565
       O     1.55378    2.41073  -13.21998
      H1     0.92595    2.22378  -12.51132
       H     5.61341    1.31828  -13.51737
       O     5.40906    0.75792  -14.28002
      H1     6.11992    0.10636  -14.30709
       H     0.53999   -2.09919  -15.44759
       O     0.78970   -1.83215  -16.38688
      H1    -0.04983   -1.60907  -16.85992
       H     3.49528   -3.31366  -13.62541
       O     4.25768   -3.48222  -14.21698
      H1     4.35076   -2.75406  -14.91688
       H     2.99768   -3.08918  -11.69399
       O     2.41668   -3.05801  -12.46840
      H1     2.21187   -3.97774  -12.72468
       H    -0.25649   -0.54779  -13.53851
       O    -0.79367    0.16542  -13.15551
      H1    -1.54814   -0.21917  -12.64445
       H     8.12222    0.60606  -16.11411
       O     8.63294    1.18841  -16.68243
      H1     7.99096    1.78769  -17.08056
       H     3.34187    0.56958  -10.88849
       O     2.74373   -0.16973  -11.05170
      H1     2.70527   -0.18760  -12.02980
       H     4.22218   -1.22911  -16.49562
       O     4.80459   -2.03246  -16.37049
      H1     5.69168   -1.66859  -16.11423
       H    10.22214    0.02151  -19.09852
       O     9.77970   -0.46317  -18.38130
      H1     9.38385    0.15184  -17.77410
       H     3.55210    0.05608  -14.24545
       O     2.62241   -0.02180  -14.00620
      H1     2.27295    0.81172  -13.73089
       H     0.09319    2.29115  -15.68774
       O     0.43956    3.21195  -15.61655
      H1    -0.31424    3.85624  -15.69592
       H     0.98426   -2.55253  -13.19462
       O     0.35833   -2.32219  -13.92392
      H1    -0.41768   -2.81644  -13.71355
       H    -0.29736    0.14981  -16.32721
       O    -0.81092    0.81239  -15.83750
      H1    -0.69371    0.54477  -14.88327
       H     9.76707   -3.17436  -15.85012
       O     9.02355   -3.45829  -16.44144
      H1     8.42354   -4.02220  -15.82092
       H     7.65562    3.64699  -17.57596
       O     7.47551    2.99564  -18.24928
      H1     6.52289    2.83709  -18.20120
       H     3.01110   -0.06245  -15.92668
       O     3.35552    0.12084  -16.79670
      H1     3.59720    1.06790  -16.71024
       H    -0.36533   -3.66249  -17.13467
       O    -0.87849   -4.44770  -17.40191
      H1    -0.23342   -5.08143  -17.76511
       H     5.94601   -1.69265  -11.46523
       O     6.17263   -2.52851  -11.96620
      H1     5.28095   -2.83886  -12.20171
       H     2.42453   -3.14012  -18.43388
       O     3.23834   -3.64472  -18.16696
      H1     3.55633   -3.10921  -17.40595
       H     3.76520   -5.69565  -14.66054
       O     4.00157   -6.44121  -15.18845
      H1     4.46379   -6.96584  -14.44971
       H     8.59693   -3.65896  -18.11552
       O     8.27985   -4.03755  -18.96397
      H1     7.54194   -3.55408  -19.37060

