84
frame 1 | Written by MDAnalysis XYZWriter (release 2.4.3)
       H   -19.14282  -17.37822   -7.37109
       O   -19.80681  -16.89269   -6.83263
      H1   -19.87160  -17.40084   -6.00021
       H   -18.73360  -18.03252   -3.96496
       O   -18.95058  -17.04923   -4.05061
      H1   -19.45586  -16.84551   -3.26644
       H   -17.87250  -15.35268  -10.00723
       O   -18.59425  -15.12844  -10.61880
      H1   -18.12349  -14.93501  -11.45536
       H   -17.92353  -11.81824  -11.13272
       O   -17.02416  -11.58981  -11.39609
      H1   -16.92983  -10.65247  -11.12860
       H   -13.29253  -16.92468   -8.90438
       O   -13.90471  -16.50519   -8.29493
      H1   -13.75289  -15.54631   -8.41680
       H   -16.92166  -15.28044   -7.59692
       O   -16.83856  -15.51993   -8.49208
      H1   -16.38495  -14.78245   -8.86560
       H   -16.44061  -12.19629  -16.49104
       O   -16.86785  -13.06593  -16.14832
      H1   -17.16071  -12.78368  -15.27687
       H   -16.32596  -15.21179   -4.65540
       O   -16.92336  -15.49147   -5.36173
      H1   -17.52664  -16.13307   -4.93656
       H   -16.32512   -8.32063  -11.37954
       O   -16.46734   -9.08956  -10.78156
      H1   -17.28879   -8.94937  -10.32165
       H   -15.08587  -18.19842  -15.05406
       O   -14.37834  -18.26093  -14.38722
      H1   -14.51611  -19.15740  -14.07536
       H   -16.87362  -18.51082   -7.69823
       O   -17.60772  -18.20411   -8.25271
      H1   -17.21716  -17.36412   -8.58698
       H   -16.18123  -14.34273  -13.01123
       O   -17.12466  -14.66811  -12.99183
      H1   -17.27677  -15.20374  -13.77299
       H   -11.30295  -11.27034  -10.46654
       O   -11.83316  -11.41370   -9.63993
      H1   -12.24643  -12.29045   -9.88786
       H   -13.77945  -13.22085  -12.85368
       O   -14.32027  -13.94913  -13.25238
      H1   -14.21836  -13.93773  -14.22277
       H   -14.95976  -19.21981   -8.70832
       O   -14.87902  -19.12069   -7.73289
      H1   -14.53848  -18.27589   -7.52179
       H   -19.76156  -14.76025   -6.33983
       O   -19.36337  -14.15332   -5.73145
      H1   -18.54367  -14.61045   -5.41498
       H   -14.99616  -11.90146   -5.48087
       O   -15.48612  -12.74537   -5.41186
      H1   -16.32954  -12.37819   -4.99833
       H   -17.89888  -10.62262  -13.62715
       O   -18.49018  -11.40771  -13.62199
      H1   -18.04802  -11.82533  -12.90947
       H   -12.57747  -18.66501  -10.33201
       O   -12.31174  -17.76405  -10.17672
      H1   -12.80024  -17.44259  -10.97064
       H   -15.33380  -18.43486   -4.90587
       O   -14.60809  -17.92771   -5.13683
      H1   -14.94946  -17.02415   -5.18989
       H   -15.62848  -11.71640   -8.65725
       O   -15.84788  -10.88061   -8.26639
      H1   -16.71699  -11.00552   -7.87795
       H   -18.24335  -17.41537  -14.67686
       O   -17.73829  -16.60181  -15.04058
      H1   -18.36905  -16.24637  -15.67214
       H   -18.93609  -19.31859  -14.63374
       O   -19.21679  -18.63445  -14.05564
      H1   -19.39617  -19.02392  -13.20784
       H   -13.98880  -17.31233  -13.12589
       O   -13.55538  -16.77815  -12.40141
      H1   -13.99418  -15.94177  -12.54243
       H   -14.70360  -13.46288  -10.07225
       O   -15.52374  -13.12428   -9.68818
      H1   -15.99615  -12.67411  -10.36113
       H   -12.11108  -14.49722   -9.33589
       O   -12.83352  -13.99767   -8.95867
      H1   -12.70756  -13.85267   -8.03253
       H   -18.71047  -12.43915   -6.56972
       O   -18.54926  -11.55348   -6.94298
      H1   -19.15094  -11.32093   -7.66718
       H   -13.89300  -13.38030   -5.98914
       O   -12.89909  -13.47148   -6.22678
      H1   -12.47246  -12.81150   -5.60754

