84
frame 3 | Written by MDAnalysis XYZWriter (release 2.4.3)
       H     1.03317   -8.41235   13.16794
       O     1.73198   -8.50613   13.82807
      H1     2.53803   -8.10103   13.48006
       H    -5.48095   -6.57584   12.59178
       O    -5.77763   -5.70695   12.25953
      H1    -6.49408   -6.02091   11.72745
       H    -2.58334  -12.96355   18.80007
       O    -3.49524  -12.91050   18.58496
      H1    -3.46627  -12.40836   17.77102
       H    -0.93175   -9.89328   11.78059
       O    -0.25773   -9.13964   11.77922
      H1     0.67586   -9.51998   11.66456
       H    -2.29109   -6.66262    9.79133
       O    -2.62079   -7.50992   10.01578
      H1    -2.33091   -8.11047    9.29112
       H    -3.15636  -10.18232   12.76997
       O    -2.60642  -10.78296   12.22767
      H1    -3.12296  -10.83268   11.47499
       H    -7.27555   -8.59583   15.78586
       O    -6.65613   -7.91504   15.54464
      H1    -6.73340   -7.60774   14.62986
       H    -2.18071  -12.18254   13.17860
       O    -2.10533  -12.99599   13.69984
      H1    -2.75157  -13.58452   13.32523
       H    -4.42609  -13.13352   16.06602
       O    -4.02399  -12.29629   15.79463
      H1    -3.34088  -12.55575   15.12947
       H    -2.77566   -9.18498   16.49930
       O    -2.93142   -9.45788   17.41085
      H1    -2.11481   -9.30772   17.93960
       H    -4.29625   -8.65483   12.76264
       O    -5.11037   -8.48454   12.17906
      H1    -4.87380   -8.41013   11.18775
       H     0.87827  -11.01264   15.95117
       O     0.13139  -10.92056   15.31562
      H1    -0.42322  -11.69176   15.49007
       H    -5.36614   -8.73519   18.91361
       O    -6.34009   -9.04804   18.86320
      H1    -6.22433   -9.79773   18.24957
       H    -3.04134   -7.17755   12.21382
       O    -2.66635   -6.78935   13.01902
      H1    -2.54632   -5.81660   12.77776
       H    -1.67581   -8.25363   14.32690
       O    -1.19929   -8.37874   15.18195
      H1    -0.67682   -9.15070   14.97573
       H     0.65060  -11.58412   13.81522
       O     0.93101  -12.07645   13.05902
      H1     1.22973  -12.88513   13.52864
       H    -5.19564  -12.28795   12.69169
       O    -5.41803  -11.53872   12.14401
      H1    -5.81659  -10.88185   12.72181
       H    -8.02886   -7.71974   11.41150
       O    -8.09747   -7.29268   12.30779
      H1    -9.03030   -7.17478   12.47750
       H    -5.56255  -11.51737   15.40054
       O    -6.33783  -11.14308   14.98621
      H1    -6.99562  -11.07463   15.67613
       H    -4.64287   -9.70772   14.86612
       O    -3.89458   -9.12857   14.55046
      H1    -4.12094   -8.28038   14.99888
       H    -0.34735   -7.42311   18.01297
       O    -0.49298   -8.16918   18.65842
      H1     0.38012   -8.53417   18.78184
       H    -3.23480   -5.01039   15.65642
       O    -2.62496   -4.24898   15.69621
      H1    -2.98219   -3.71205   16.43021
       H    -1.30493   -5.50566   16.23153
       O    -0.52604   -5.94688   16.52497
      H1    -0.48899   -6.61181   15.83446
       H    -8.03253   -4.83965   15.57927
       O    -7.86621   -5.41501   16.28759
      H1    -7.22054   -6.10991   16.02954
       H    -3.35710   -7.96946   18.51848
       O    -3.97202   -7.23020   18.82955
      H1    -3.34436   -6.66288   19.32728
       H    -4.67909  -10.92564   10.51921
       O    -4.19840  -10.77753    9.74329
      H1    -4.42075  -11.58714    9.19204
       H    -5.45640   -6.71762   16.36613
       O    -4.60406   -6.22194   16.35815
      H1    -4.23718   -6.28804   17.21540
       H    -7.99560  -12.25733   17.46724
       O    -7.17046  -11.69810   17.67241
      H1    -6.52737  -12.27768   18.11005

