84
frame 2 | Written by MDAnalysis XYZWriter (release 2.4.3)
       H   -10.35119   10.39746    1.07138
       O   -11.10311   10.42884    1.66307
      H1   -11.73392   11.05016    1.32001
       H   -10.38729    7.77130    8.26222
       O    -9.70234    7.74949    8.93327
      H1    -9.98975    7.05509    9.50084
       H    -9.91695    6.63847    4.83251
       O    -9.02478    6.51718    4.43997
      H1    -8.46052    6.47383    5.24875
       H    -8.20210   12.25474    7.04633
       O    -7.57017   12.95349    7.09903
      H1    -7.82907   13.74779    6.61398
       H    -6.90859    5.47738    1.73659
       O    -6.77037    5.30730    0.77048
      H1    -7.61443    4.92455    0.43632
       H    -3.61378    6.99946    1.04822
       O    -3.53505    6.17082    1.53867
      H1    -2.94015    6.34782    2.30127
       H   -11.44264    7.22713    6.82831
       O   -10.93473    7.95436    6.40138
      H1   -11.61322    8.46200    5.88685
       H    -7.97271    8.26698   -0.35979
       O    -7.44992    7.65189   -0.88339
      H1    -7.37546    6.91901   -0.20292
       H    -7.62493   13.52784    1.59223
       O    -6.86776   13.42702    1.01333
      H1    -7.17699   12.71039    0.45760
       H    -4.43481    9.08054    1.66064
       O    -4.49215    9.36101    2.54808
      H1    -4.82147   10.27148    2.57881
       H    -5.20436    8.18037    5.29629
       O    -5.69447    8.11053    4.45025
      H1    -5.15395    8.69527    3.87169
       H   -12.40983    7.54626    4.09174
       O   -12.07530    6.63744    4.18580
      H1   -12.63734    6.25120    4.96000
       H    -7.68467    5.75339    7.24002
       O    -7.65028    6.69538    7.18434
      H1    -8.43520    7.01864    7.66800
       H    -5.46717   12.04539    3.65030
       O    -4.99035   12.00178    2.80873
      H1    -5.59288   12.37417    2.14036
       H    -9.59271   13.06418    3.19327
       O    -9.06651   13.74630    2.68255
      H1    -9.66214   14.20052    2.08106
       H    -1.92557    7.99233    3.96241
       O    -2.06281    8.89818    3.63562
      H1    -2.98212    8.87325    3.22663
       H   -10.33607   11.16263    3.29461
       O   -10.42869   11.90720    3.98258
      H1   -10.21950   11.49861    4.81582
       H    -4.83089    8.62980    8.50879
       O    -5.34582    8.81105    9.31252
      H1    -4.80428    8.42986   10.00058
       H    -8.18204    9.22037    2.80893
       O    -8.13801    8.46167    2.21792
      H1    -8.37613    7.76570    2.85677
       H    -2.70168   11.51493    7.20157
       O    -3.08804   12.22895    6.62343
      H1    -3.99576   11.91393    6.48617
       H    -8.13892    4.51360    4.04260
       O    -8.52879    3.62487    4.11485
      H1    -9.48678    3.77155    4.17475
       H   -13.18919    9.81256    4.41889
       O   -12.36422    9.29290    4.46052
      H1   -11.80341    9.63001    3.76414
       H   -10.52713   11.43013    7.01450
       O    -9.80348   10.94197    6.58469
      H1   -10.22478   10.12161    6.29181
       H    -4.74127    4.37846    3.89825
       O    -3.99813    3.81609    4.09369
      H1    -3.99163    3.05145    3.47727
       H    -7.16860    9.18603    4.67774
       O    -7.81483    9.97169    4.71540
      H1    -8.20480    9.72114    5.53402
       H    -5.03257    5.72650    2.71412
       O    -5.76841    5.56278    3.31376
      H1    -5.91370    6.44890    3.70099
       H    -5.47740    6.93627    6.99673
       O    -4.82828    7.62168    6.92184
      H1    -3.94571    7.25364    6.99990
       H    -6.11275   12.32108    5.99367
       O    -5.69085   11.66073    5.41679
      H1    -6.46947   11.01881    5.30170

