84
frame 3 | Written by MDAnalysis XYZWriter (release 2.4.3)
       H     8.76306    8.58951  -12.30413
       O     8.92714    9.27467  -11.62289
      H1     9.04089    8.82829  -10.70612
       H     7.51065   12.50305   -2.95376
       O     6.73292   12.65540   -3.47966
      H1     7.14505   12.60148   -4.34577
       H    14.89633   10.74740   -4.96715
       O    15.58448   11.43536   -4.82485
      H1    15.36183   11.96763   -4.06193
       H    13.43010   12.47778  -11.43358
       O    13.95217   12.95101  -12.12969
      H1    13.68811   13.86858  -12.05297
       H    15.90893   10.61430   -9.88021
       O    15.81749    9.83970  -10.46374
      H1    14.89685    9.70799  -10.35690
       H    16.06502   12.99611   -9.40941
       O    15.82358   12.20661   -8.93616
      H1    16.57968   11.97078   -8.31137
       H     7.51457   12.53326   -7.01348
       O     8.07820   12.34462   -6.27170
      H1     7.83901   11.51792   -5.86736
       H     7.59529    9.26918   -6.03492
       O     7.42540    9.79179   -5.19018
      H1     6.49692    9.65727   -4.86217
       H    12.92317   15.98018   -8.76429
       O    13.36553   15.68466   -9.54996
      H1    12.98151   15.92360  -10.39453
       H     8.99796    9.62787   -2.28712
       O     9.00342    8.87949   -2.98405
      H1     8.61167    9.30454   -3.76954
       H    10.57364   13.49965  -11.26917
       O    10.26027   13.64347  -12.14970
      H1    10.10087   12.76952  -12.56083
       H    11.80124   10.61626  -11.59059
       O    11.94297   11.20904  -10.77725
      H1    11.35039   10.85612  -10.11739
       H    11.40333   16.74015   -6.54796
       O    12.35120   16.47320   -6.72972
      H1    12.34335   15.49222   -6.66356
       H     9.39929   14.86571   -8.10323
       O     9.09983   15.74910   -8.09436
      H1     9.54911   16.29953   -8.77152
       H    12.68734    9.69605  -13.20056
       O    11.69945    9.77478  -13.10240
      H1    11.47687    8.94650  -12.59558
       H    10.06613    8.02194   -8.64328
       O    10.05157    7.65748   -9.54444
      H1     9.44393    6.87896   -9.47005
       H    10.68507   11.27542   -8.17073
       O    10.65636   10.37409   -8.53756
      H1     9.79910    9.97046   -8.35566
       H     9.63298   12.68384   -6.95703
       O    10.26316   13.00912   -7.60032
      H1    11.06787   13.26985   -7.06489
       H     9.29288    8.19001   -6.32621
       O     8.75203    8.59575   -7.03028
      H1     8.19617    7.87499   -7.38440
       H    10.11340   11.24116  -14.05779
       O     9.33828   11.49047  -13.56001
      H1     9.32189   10.89917  -12.83676
       H    10.53897   15.35297   -4.06244
       O    11.16566   14.65772   -3.68715
      H1    10.55078   13.95740   -3.49809
       H     7.28551   10.30253  -11.21441
       O     6.34978   10.51207  -11.10878
      H1     6.32486   11.42288  -10.84273
       H    15.02674   12.56910   -6.06758
       O    14.86037   13.30278   -6.66457
      H1    14.99571   12.94893   -7.54612
       H    13.01208    9.76469   -6.65450
       O    13.89357    9.51578   -6.40181
      H1    13.72452    8.63980   -5.91178
       H     5.69450   12.88948   -8.78808
       O     5.68698   12.66544   -7.81320
      H1     5.12814   11.89175   -7.77534
       H    12.83568    7.91863   -9.45331
       O    13.49297    7.61947  -10.06925
      H1    14.16437    7.21114   -9.53321
       H    10.51818    6.41371   -4.92404
       O    10.36837    7.35245   -5.14449
      H1    10.45008    7.87617   -4.35963
       H    13.35055   13.63565   -6.22819
       O    12.40880   13.79865   -6.00406
      H1    12.35014   13.79128   -5.06125

