84
frame 2 | Written by MDAnalysis XYZWriter (release 2.4.3)
       H    15.99972    4.85757   18.47013
       O    15.36032    4.55382   17.83555
      H1    15.23358    5.31210   17.31712
       H    16.92211    5.21657   10.86178
       O    16.03397    5.60691   10.72062
      H1    15.43647    5.26542   11.32068
       H    14.23934   13.95487   17.46493
       O    13.80915   14.42608   18.21337
      H1    13.76453   13.77436   18.90598
       H    17.55299   10.92196   11.63185
       O    17.86193   10.82782   12.55378
      H1    18.53823   10.11433   12.60571
       H    10.77760    9.64834   13.89184
       O    11.18855    9.89233   13.06108
      H1    10.88065    9.25135   12.39777
       H    14.52428   10.21610    8.78987
       O    14.59532    9.81640    9.67660
      H1    14.47272    8.86529    9.65211
       H    13.74019    6.61678   14.82277
       O    13.23776    6.45219   14.01668
      H1    12.31631    6.27475   14.20804
       H    13.98862   10.23967   11.09009
       O    13.68289   10.48958   11.99111
      H1    12.79370   10.04445   12.09692
       H    19.59489    7.92178   17.74533
       O    18.62381    8.05769   17.71428
      H1    18.42401    9.01819   17.43695
       H    11.41215   14.83052   14.52893
       O    11.84013   13.94815   14.49119
      H1    12.13185   13.78307   13.56845
       H    19.31133   13.93658   13.16766
       O    18.43962   13.61593   13.15807
      H1    18.44947   12.67609   12.88307
       H    16.75447   10.30416   13.75485
       O    15.94120    9.83465   14.02810
      H1    15.28071   10.09806   13.38892
       H    12.29762    7.87353   11.95008
       O    11.68952    7.91639   11.18879
      H1    11.05374    7.19338   11.25790
       H    18.52394    8.05512   13.65804
       O    19.19330    8.52113   13.14736
      H1    20.03818    8.46018   13.60698
       H    18.88847   14.30195   15.11066
       O    18.78172   14.51581   16.03617
      H1    17.75142   14.38358   16.06849
       H    19.33625    6.19431   10.94221
       O    19.78319    7.07061   10.87109
      H1    19.64936    7.41399   11.75107
       H    15.31859   15.83286   12.16291
       O    14.38501   15.68496   12.41940
      H1    14.34164   14.75057   12.42233
       H    18.11240   11.82202   17.87592
       O    17.30363   11.32583   17.69763
      H1    17.07129   11.39854   16.79162
       H    13.49499    5.10418   12.88780
       O    13.68779    4.41256   12.26339
      H1    14.38009    3.91281   12.70342
       H    17.81005   10.23475    9.09671
       O    17.22556   10.92627    9.45761
      H1    16.45265   10.33706    9.68599
       H    18.23551    4.65339   15.72663
       O    18.84684    5.40956   16.08842
      H1    18.35740    6.21391   15.95001
       H    16.16417    7.87433   14.10653
       O    16.62134    7.14315   14.51561
      H1    16.62062    6.39697   13.96426
       H    15.61770   14.55739   16.02861
       O    16.18145   13.78840   16.28275
      H1    16.20951   13.64410   17.23923
       H    12.44692   13.26512   11.64683
       O    13.11898   13.12639   12.34082
      H1    13.18138   12.15103   12.19957
       H    19.08514   12.23885   10.04243
       O    19.56923   12.93905   10.51333
      H1    19.04646   13.20348   11.28036
       H    15.29765    7.27550   16.09007
       O    14.59328    6.78907   16.55067
      H1    14.14958    7.15986   17.28527
       H    15.47451   10.69135   18.58006
       O    15.01053   10.62026   19.39672
      H1    15.53615   11.10224   20.03855
       H    11.91033   10.78412   17.31816
       O    12.23981    9.88132   17.47169
      H1    12.84756    9.96894   18.16750

