84
frame 2 | Written by MDAnalysis XYZWriter (release 2.4.3)
       H    18.37628    3.56800   -7.39519
       O    19.03560    3.15000   -6.85116
      H1    18.45433    2.77987   -6.18557
       H    12.90043    3.98408    1.57235
       O    13.32655    3.76932    0.74032
      H1    14.17501    3.30995    0.94207
       H    12.98343    8.41771    1.43488
       O    13.13524    7.45575    1.40927
      H1    13.70997    7.34546    0.66550
       H    18.66078   10.25205   -4.07533
       O    18.12243    9.82029   -3.43333
      H1    17.23495    9.82448   -3.76755
       H    15.98555    2.84646   -3.13512
       O    15.20231    3.15693   -3.63843
      H1    15.51829    4.00090   -4.04972
       H    15.36160    4.53936   -5.98170
       O    15.85406    5.05581   -5.33582
      H1    16.50655    5.67271   -5.73915
       H    16.69053    1.42061    2.51317
       O    17.54436    1.71402    2.32149
      H1    18.00844    1.42253    3.19400
       H    16.36395   -1.10967   -2.59750
       O    17.22093   -1.31211   -2.16885
      H1    17.45741   -0.58096   -1.60572
       H    15.12539    1.35888    0.72290
       O    15.42917    1.97339    0.04890
      H1    16.37765    1.90707    0.00166
       H    17.49977    8.89816    2.31180
       O    17.88768    8.52628    3.08018
      H1    18.75229    8.35506    2.74473
       H    16.25392    9.48292    0.14720
       O    16.95502    9.04935    0.53788
      H1    16.89881    8.08173    0.35138
       H    14.40913    1.31165   -1.38453
       O    14.18095    0.58883   -2.03264
      H1    13.43592    0.09884   -1.58116
       H    17.87853    0.60406    0.61103
       O    18.00410    0.80286   -0.33489
      H1    18.81689    1.35503   -0.39114
       H    12.94499    2.25477   -4.64463
       O    12.69797    1.37348   -4.23908
      H1    13.31456    1.43327   -3.47648
       H    18.99645    4.31427   -1.68927
       O    18.94736    5.31238   -1.58111
      H1    18.65261    5.62703   -2.44740
       H    18.65877    2.23182   -3.08335
       O    19.05060    2.68775   -2.29688
      H1    19.99845    2.34955   -2.41089
       H    18.35909    6.92286   -6.69011
       O    17.68071    6.88823   -5.98834
      H1    18.09262    7.15144   -5.16904
       H    17.69553    3.38004    2.40720
       O    17.80795    4.32984    2.53038
      H1    17.71514    4.41716    3.49884
       H    19.61016   -3.47668   -2.43899
       O    19.58592   -2.72297   -1.83189
      H1    18.67519   -2.35248   -1.91038
       H    17.05113    1.08851   -5.44049
       O    17.83345    1.45908   -5.03446
      H1    18.54537    0.86398   -5.13858
       H    19.71072    7.07292   -3.61380
       O    18.75658    7.05580   -3.55822
      H1    18.43746    7.91426   -3.22130
       H    15.53082    6.52358   -0.22880
       O    14.69781    6.80442   -0.51849
      H1    14.28578    6.05946   -0.97802
       H    14.11132    9.18533   -2.57924
       O    14.75867    8.49100   -2.61391
      H1    14.64000    8.06665   -1.73478
       H    14.89962    6.35959   -4.68035
       O    13.98531    6.74469   -4.58667
      H1    14.12943    7.45700   -3.94972
       H    19.37144   10.72443   -1.86379
       O    19.72512   11.30866   -1.21633
      H1    19.14923   11.51231   -0.44318
       H    18.83665    6.93510    0.65053
       O    19.80705    7.03694    0.80357
      H1    20.22053    6.15516    1.02387
       H    14.13880    4.51284   -2.31107
       O    13.46523    4.85107   -1.75828
      H1    13.34473    4.36181   -0.91307
       H    17.45132    5.46046    1.11548
       O    17.46115    6.06498    0.38014
      H1    18.16230    5.81671   -0.19652

