84
frame 2 | Written by MDAnalysis XYZWriter (release 2.4.3)
       H    17.33086    4.22622    6.62970
       O    17.08463    3.63263    7.38176
      H1    16.20894    3.97290    7.69095
       H    17.08223    5.62004    5.13625
       O    17.75926    4.93915    5.13324
      H1    18.60534    5.48381    5.05865
       H    16.92211    5.21657   10.86178
       O    16.03397    5.60691   10.72062
      H1    15.43647    5.26542   11.32068
       H    13.39968    3.43926    8.47949
       O    14.29739    3.82319    8.56667
      H1    14.07919    4.76172    8.64339
       H    12.98343    8.41771    1.43488
       O    13.13524    7.45575    1.40927
      H1    13.70997    7.34546    0.66550
       H    12.73983    1.96626    4.63710
       O    13.58273    2.37677    4.46877
      H1    13.25274    3.26423    4.26556
       H    13.05784    5.38232    4.22237
       O    12.59552    4.74492    3.62453
      H1    11.65007    4.74253    3.96299
       H    14.52428   10.21610    8.78987
       O    14.59532    9.81640    9.67660
      H1    14.47272    8.86529    9.65211
       H    12.34805    6.93355    6.65072
       O    12.32923    6.96408    5.68924
      H1    11.48520    7.39118    5.47457
       H    17.49977    8.89816    2.31180
       O    17.88768    8.52628    3.08018
      H1    18.75229    8.35506    2.74473
       H    18.39450    1.61300    9.01260
       O    18.47516    2.53376    9.30234
      H1    18.12200    2.98439    8.53349
       H    18.03176    8.51407    4.85636
       O    18.34060    8.44675    5.76343
      H1    17.73521    8.08948    6.36086
       H    17.60533   10.53030    5.29692
       O    18.10503   11.31440    5.05470
      H1    18.91920   11.20005    5.54447
       H    15.21083    7.26052    6.96639
       O    15.84740    7.01297    6.24157
      H1    15.57489    7.52170    5.49389
       H    19.86094    1.26672    6.64234
       O    19.67425    2.18138    6.38560
      H1    18.71570    2.28063    6.59844
       H    16.99646   11.88704    7.95463
       O    16.63472   12.46106    7.22036
      H1    17.09323   12.23995    6.41816
       H    13.94000    7.53772    2.99173
       O    14.22209    7.68780    3.93493
      H1    13.36475    7.43552    4.35256
       H    14.87520   11.68763    7.25561
       O    14.13865   11.13806    7.41432
      H1    14.17284   10.54196    6.67148
       H    15.21600    2.60234    9.88366
       O    15.29547    2.01931   10.69637
      H1    16.01131    1.40405   10.51079
       H    14.48592    9.21583    4.58752
       O    14.81937    9.94270    5.07324
      H1    14.89621   10.69647    4.49959
       H    11.05095    7.41976    9.05304
       O    11.28659    6.83935    8.32062
      H1    11.13053    5.93568    8.56193
       H    17.69553    3.38004    2.40720
       O    17.80795    4.32984    2.53038
      H1    17.71514    4.41716    3.49884
       H    16.08330    2.08866    6.60342
       O    15.77804    1.21792    6.41440
      H1    14.96777    1.43896    5.93263
       H    17.81005   10.23475    9.09671
       O    17.22556   10.92627    9.45761
      H1    16.45265   10.33706    9.68599
       H    13.43024    7.09824    9.26042
       O    14.37822    7.18099    9.05789
      H1    14.89191    6.50329    9.57944
       H    13.25869    9.68656    3.11552
       O    12.64103   10.07064    2.45388
      H1    11.74419   10.03426    2.80649
       H    20.04309    8.92905    8.35526
       O    19.25342    9.02000    8.94404
      H1    19.42824    8.47774    9.73621
       H    17.45132    5.46046    1.11548
       O    17.46115    6.06498    0.38014
      H1    18.16230    5.81671   -0.19652

