84
frame 2 | Written by MDAnalysis XYZWriter (release 2.4.3)
       H   -17.76639   11.42098  -11.38403
       O   -18.03967   10.49613  -11.40656
      H1   -18.57302   10.33769  -10.58428
       H   -11.40916   12.60283  -11.07628
       O   -11.66629   11.73285  -10.78334
      H1   -12.64482   11.68851  -10.77554
       H   -13.97383   13.27563  -12.87087
       O   -13.96050   12.39025  -12.57969
      H1   -14.84729   11.99117  -12.79273
       H   -15.45374   15.09249  -13.03842
       O   -16.13189   15.38249  -12.36177
      H1   -16.38411   14.53617  -11.91198
       H   -10.90610   16.48826   -9.12797
       O   -11.11206   16.64767  -10.10595
      H1   -10.21719   16.89167  -10.41016
       H   -18.11062   16.53332  -12.22237
       O   -18.75562   16.98765  -12.77376
      H1   -18.35357   16.88680  -13.65243
       H   -14.21239   12.12441   -5.99325
       O   -14.21798   12.79496   -6.69769
      H1   -13.33991   12.77957   -7.11154
       H   -12.95760   10.16898   -6.86759
       O   -12.98561    9.78291   -7.71204
      H1   -13.66423   10.27898   -8.17344
       H   -10.88527   15.44715  -13.77992
       O   -11.02506   14.50751  -13.98728
      H1   -10.50227   14.43743  -14.81485
       H   -13.77543   16.74657   -4.73656
       O   -13.59328   17.58034   -4.27362
      H1   -13.89899   17.40248   -3.35942
       H    -7.29362   13.74448  -11.37985
       O    -7.99069   13.80473  -10.65162
      H1    -8.91628   14.03419  -10.97682
       H   -11.03784   16.76652   -6.50851
       O   -11.49948   16.46789   -7.28877
      H1   -12.34963   16.94942   -7.24946
       H   -12.89905   14.45190  -14.47653
       O   -13.82778   14.77550  -14.29371
      H1   -14.23429   14.79532  -15.16409
       H   -17.79442   13.78609  -11.52825
       O   -17.15479   13.13684  -11.29360
      H1   -17.03244   13.30302  -10.24649
       H   -13.36216   15.04747  -10.05846
       O   -14.18968   15.05732   -9.59445
      H1   -14.81264   15.55620  -10.17965
       H   -15.22848   19.83631  -11.51568
       O   -15.59952   18.95456  -11.20993
      H1   -16.51734   19.12598  -10.91651
       H   -15.28368   16.25961   -6.22170
       O   -15.26358   15.60714   -5.53293
      H1   -14.71895   14.87612   -5.90191
       H    -9.57167   10.47506   -7.28767
       O    -9.46868   11.45657   -7.04054
      H1   -10.03174   11.92983   -7.66374
       H   -18.65368   14.73672   -6.49910
       O   -18.56294   13.83515   -6.66806
      H1   -17.96432   13.76674   -7.39133
       H   -11.36006   13.27429   -8.80128
       O   -11.71890   13.24580   -7.92208
      H1   -11.57775   14.10000   -7.53526
       H   -14.39662   18.31636   -7.93913
       O   -13.98903   17.43583   -7.71432
      H1   -14.03780   16.94043   -8.57474
       H   -12.44383   16.73648  -14.86911
       O   -12.46150   17.59199  -14.46294
      H1   -13.39644   17.77755  -14.30451
       H   -15.90011   10.45747   -8.33345
       O   -16.11516   10.97355   -7.55351
      H1   -15.31649   11.37628   -7.27746
       H   -11.35358   19.52604  -11.24097
       O   -11.76156   19.46661  -10.34669
      H1   -11.85889   18.51462  -10.17432
       H   -10.71747   14.13864  -12.21347
       O   -10.57507   14.22986  -11.25551
      H1   -10.84636   15.13299  -11.02600
       H   -15.45355   17.78178  -14.65711
       O   -14.97442   18.27909  -13.97400
      H1   -15.42539   18.24345  -13.15821
       H   -15.64003    8.96516  -10.05383
       O   -15.54572    9.93437  -10.21217
      H1   -16.35218   10.27602  -10.65115
       H   -15.81075   13.84346   -8.46076
       O   -16.59743   13.30687   -8.68179
      H1   -16.47935   12.45003   -8.28864

