84
frame 3 | Written by MDAnalysis XYZWriter (release 2.4.3)
       H   -15.57128   -5.61763   10.38646
       O   -16.22739   -6.27517   10.21278
      H1   -16.94114   -5.74808    9.84195
       H   -15.90999   -8.87467    3.02315
       O   -15.37930   -9.49157    2.43688
      H1   -15.16350   -8.98205    1.67203
       H   -14.21139   -7.88046    8.05589
       O   -15.17478   -8.06476    8.22864
      H1   -15.53526   -7.20587    8.60011
       H   -16.68447   -2.85543   12.80259
       O   -16.80616   -1.94320   12.47158
      H1   -17.56666   -1.95448   11.87099
       H   -18.61232  -10.92589    3.55721
       O   -19.50377  -10.69971    3.16817
      H1   -19.46549   -9.91096    2.64446
       H   -16.67352   -8.36798   11.49908
       O   -17.39021   -8.87683   11.86005
      H1   -18.18992   -8.72785   11.33225
       H   -16.20323   -9.09581    5.42259
       O   -16.16945   -9.56344    6.25705
      H1   -16.12557   -8.77343    6.91508
       H   -13.89601   -3.33934    9.69372
       O   -14.70296   -3.77560    9.95669
      H1   -15.30179   -3.13910   10.32170
       H   -16.80386    1.10334    9.28244
       O   -16.57475    0.39468    9.92767
      H1   -15.96375   -0.33172    9.62332
       H   -14.85262   -4.37021    3.14328
       O   -15.45539   -3.96606    2.50463
      H1   -15.11638   -4.20848    1.61957
       H   -18.81392  -12.68243    6.54889
       O   -18.95002  -11.83133    6.95459
      H1   -18.30356  -11.73463    7.71546
       H   -17.80847   -8.49852    4.66310
       O   -17.15478   -7.95715    4.08706
      H1   -17.66176   -7.42743    3.46077
       H   -13.58935   -5.80456    4.46671
       O   -14.22157   -5.12647    4.61741
      H1   -14.10421   -4.91647    5.56774
       H   -14.02878   -8.46021   11.30424
       O   -14.28204   -9.32860   10.85198
      H1   -14.51555   -8.94834    9.97724
       H   -17.18867   -1.51866    8.25239
       O   -16.44219   -2.09183    8.44633
      H1   -15.91153   -2.01828    7.63517
       H   -18.77048  -10.11010    6.14537
       O   -19.12485   -9.29530    5.75237
      H1   -19.47694   -9.55217    4.89808
       H   -19.25323   -1.38126    7.44389
       O   -18.58871   -0.72037    7.31936
      H1   -18.19390   -0.88321    6.41889
       H   -12.22946   -6.67218    8.32156
       O   -12.66327   -7.12600    7.58655
      H1   -11.86098   -7.32467    7.04130
       H   -18.19916   -3.61185    4.91647
       O   -18.32702   -3.50109    3.96019
      H1   -17.59902   -4.05917    3.66278
       H   -17.83810   -0.18491    4.34004
       O   -17.39686   -0.95691    4.78956
      H1   -17.62128   -1.68326    4.18166
       H   -18.75180   -4.84888    9.29699
       O   -17.94095   -4.78160    8.81894
      H1   -17.54979   -3.90424    8.81857
       H   -19.56981   -0.72575   10.92285
       O   -19.35175   -1.48466   11.48568
      H1   -19.67006   -1.30105   12.40029
       H   -17.61080   -5.38501    1.58513
       O   -17.28214   -6.08062    2.23134
      H1   -16.46672   -5.73030    2.63112
       H   -14.77748  -10.61150    6.58357
       O   -14.17718  -11.36296    6.75527
      H1   -13.27432  -11.08176    6.83662
       H   -15.67209   -5.98027    6.65613
       O   -16.43212   -6.35399    6.23913
      H1   -16.21979   -6.87995    5.48142
       H   -13.60460   -5.50373    7.56992
       O   -14.00158   -4.69175    7.33354
      H1   -14.19668   -4.26807    8.19395
       H   -18.76064   -5.59018    6.88536
       O   -19.67120   -5.51039    6.72399
      H1   -19.78205   -5.78700    5.80198
       H   -15.66387   -1.23474    5.71832
       O   -14.87232   -1.57837    6.19158
      H1   -14.34312   -0.86350    6.52753

