84
frame 3 | Written by MDAnalysis XYZWriter (release 2.4.3)
       H   -17.18044   10.86089  -10.38896
       O   -17.52938    9.94074  -10.46218
      H1   -18.25610    9.74278   -9.84701
       H   -17.40743   12.73597   -0.03139
       O   -18.01510   12.54178   -0.76416
      H1   -17.57191   13.02801   -1.55892
       H   -17.11788   10.59780   -5.77139
       O   -17.27985   10.39019   -4.85066
      H1   -17.60776    9.46704   -4.76168
       H   -15.09905   14.36849  -13.69059
       O   -15.65936   14.57952  -12.92012
      H1   -16.47427   14.08393  -13.10655
       H   -18.70342   17.97797   -5.32588
       O   -18.37209   18.02292   -6.21225
      H1   -18.58351   18.96942   -6.54988
       H   -14.45383   12.10878   -5.44468
       O   -14.64447   12.83017   -6.08233
      H1   -13.80306   13.13646   -6.45024
       H   -13.29914   17.29926   -4.33146
       O   -13.09890   17.94338   -3.62632
      H1   -12.43856   17.50702   -3.05719
       H   -15.07220   18.43349   -1.31211
       O   -15.40822   17.57305   -1.59411
      H1   -15.02881   17.33477   -2.42844
       H   -18.46895   18.40897   -0.41497
       O   -18.34405   18.13343   -1.30592
      H1   -17.38817   18.09691   -1.41552
       H   -14.89507   13.30791   -2.42898
       O   -14.12245   12.67219   -2.45809
      H1   -13.98178   12.51203   -1.51317
       H   -14.27570   11.43363   -3.49530
       O   -14.51025   10.77725   -4.25030
      H1   -15.51313   10.79381   -4.21063
       H   -17.32273   12.87837  -11.43500
       O   -16.68923   12.36410  -10.92800
      H1   -16.55616   13.02942  -10.10324
       H   -14.42540   16.87355  -11.65640
       O   -14.37137   16.23953  -10.89331
      H1   -14.98099   15.55655  -11.18238
       H   -16.41066   14.81834   -1.67363
       O   -16.54547   14.37455   -2.59325
      H1   -17.55872   14.43463   -2.78695
       H   -19.29196   13.32004   -3.75917
       O   -19.22074   13.99895   -3.06810
      H1   -19.25880   13.51530   -2.26136
       H   -14.37531   16.41500   -6.92259
       O   -13.93125   16.47116   -6.06651
      H1   -13.40345   15.64805   -5.94052
       H   -19.48426   15.55384   -6.15346
       O   -19.40660   14.76616   -6.70702
      H1   -18.68032   14.90996   -7.28684
       H   -15.67484   19.29764   -9.35312
       O   -15.83684   19.40999   -8.40061
      H1   -15.01127   19.75272   -7.99363
       H   -16.66711   17.98490   -5.31021
       O   -15.82932   18.08271   -4.88268
      H1   -15.18777   17.39449   -5.25640
       H   -19.04032   17.58078   -9.52674
       O   -19.11435   17.10294   -8.69398
      H1   -18.94958   17.67762   -7.90493
       H   -19.48506   19.77013  -10.78488
       O   -18.72716   19.29203  -10.34785
      H1   -18.89287   19.61524   -9.41295
       H   -16.11519   17.40126   -8.22661
       O   -15.72913   16.51950   -8.42214
      H1   -15.49670   16.56756   -9.33744
       H   -16.34722   10.60101   -7.99752
       O   -16.60263   11.23417   -7.30835
      H1   -15.80251   11.55647   -6.96119
       H   -16.56761   19.64936   -3.25680
       O   -17.50860   19.88445   -3.14403
      H1   -17.94462   19.24108   -2.48348
       H   -18.74571   10.68796  -11.67066
       O   -19.26393   11.01433  -12.39001
      H1   -20.11491   11.22110  -11.99365
       H   -18.24334   16.57130   -0.76488
       O   -18.03566   15.72025   -0.32553
      H1   -18.85710   15.32079    0.02525
       H   -18.59637   11.69894   -5.19312
       O   -19.38426   12.29480   -5.32504
      H1   -18.96694   13.01757   -5.85276
       H   -16.71766   15.03652   -8.60943
       O   -17.31380   14.25732   -8.47323
      H1   -16.86258   13.68999   -7.85293

