84
frame 3 | Written by MDAnalysis XYZWriter (release 2.4.3)
       H    17.13721    3.65633    5.85727
       O    17.50237    3.05717    6.58966
      H1    16.94765    3.16444    7.38238
       H    16.15748    6.30130    5.07903
       O    17.03101    5.84614    4.75806
      H1    17.78131    6.41499    5.04292
       H    13.31795    3.81250    1.94987
       O    13.99730    3.72176    1.25130
      H1    14.14562    2.79589    1.15044
       H    12.59442    1.71213    5.37508
       O    13.19892    2.41995    5.60968
      H1    13.14510    3.03560    4.86051
       H    19.03180   -3.78504    6.59455
       O    18.72503   -2.92167    6.87854
      H1    17.99353   -3.15088    7.51814
       H    12.83047    5.12950    3.83326
       O    12.70967    4.17882    3.65739
      H1    11.81409    3.96010    3.96694
       H    17.52860    1.31067    2.45730
       O    17.99630    2.03889    2.02631
      H1    18.94638    1.78835    2.29662
       H    17.18912   -1.39314   -1.84933
       O    17.64596   -0.95948   -2.55596
      H1    17.64504   -0.02396   -2.30016
       H    14.06763   -3.66653    5.15503
       O    14.45165   -2.82528    5.46119
      H1    15.33384   -2.85912    5.09281
       H    14.96315    0.65403    0.75867
       O    14.81404    1.33161    0.06188
      H1    15.65160    1.57735   -0.36386
       H    16.55184    0.66243    4.29712
       O    16.79990    0.09393    3.53288
      H1    16.04190   -0.09597    2.94368
       H    19.41022    2.89451    9.34063
       O    19.16155    3.67220    8.84972
      H1    18.59125    3.38622    8.11522
       H    17.04119   -1.65692    4.26274
       O    17.01752   -2.56635    4.62458
      H1    17.66972   -2.54270    5.36344
       H    13.43840    1.05859    8.09551
       O    13.42554    0.28735    7.48652
      H1    14.17487    0.34042    6.81105
       H    17.75962    0.00941    7.54337
       O    17.36609    0.56915    8.19337
      H1    16.58528    0.05169    8.48502
       H    15.99552   -3.75910    0.57745
       O    15.17549   -3.39189    0.93132
      H1    14.62937   -3.60032    0.21197
       H    19.48050    0.40180    6.41224
       O    18.95167    0.74131    5.67689
      H1    18.55524    1.57362    6.04575
       H    13.26714    0.78331   -1.64299
       O    13.24834    0.05327   -2.27414
      H1    12.70197   -0.63715   -1.76243
       H    19.00601   -3.85830    3.06065
       O    18.11895   -4.13446    2.85689
      H1    17.61344   -3.67668    3.56742
       H    11.66362    1.01632    0.88719
       O    10.82913    1.12455    1.36295
      H1    10.69510    2.08750    1.35123
       H    13.56236   -1.40019    4.66510
       O    13.05653   -1.14521    3.87952
      H1    12.52176   -0.41172    4.19419
       H    17.57110    2.05929   -0.42707
       O    17.43689    1.76086   -1.32014
      H1    18.09489    2.23913   -1.85153
       H    15.03232   -1.57453    1.65167
       O    14.87721   -0.68924    2.04039
      H1    14.44788   -0.87882    2.91979
       H    18.91028   -2.66434    0.06252
       O    18.02340   -3.11739    0.13464
      H1    18.12708   -3.37053    1.09774
       H    17.88631    3.71536    2.03040
       O    17.73596    4.67761    2.11792
      H1    17.06836    4.82328    2.78817
       H    16.28867    1.36474    6.60712
       O    15.66827    1.12162    5.85733
      H1    14.94890    1.72868    5.77972
       H    14.63404    4.28797   -2.35379
       O    13.84563    4.29392   -1.78630
      H1    13.99022    4.19190   -0.81527
       H    16.63513    5.22151    0.68005
       O    16.43985    5.63356   -0.14888
      H1    17.26745    5.83203   -0.67950

