84
frame 2 | Written by MDAnalysis XYZWriter (release 2.4.3)
       H    18.37628    3.56800   -7.39519
       O    19.03560    3.15000   -6.85116
      H1    18.45433    2.77987   -6.18557
       H    16.01230    8.38782   -7.00148
       O    15.98260    9.30293   -7.34758
      H1    15.33205    9.76127   -6.81579
       H    19.09788    1.25010   -9.48939
       O    19.89727    1.52454   -8.97189
      H1    19.55496    2.02459   -8.18056
       H    19.09677    5.07525  -10.23061
       O    18.54131    5.87992  -10.14537
      H1    17.86204    5.62854   -9.54908
       H    14.70298   10.24145   -9.44981
       O    14.70960    9.42948   -9.98573
      H1    14.15504    8.85809   -9.44875
       H    19.36317   10.47573   -8.65027
       O    19.80533    9.82485   -9.20918
      H1    19.18286    9.27517   -9.75657
       H    15.36160    4.53936   -5.98170
       O    15.85406    5.05581   -5.33582
      H1    16.50655    5.67271   -5.73915
       H    17.79786    0.54215  -14.13514
       O    18.14920   -0.06347  -14.78289
      H1    18.30173    0.38361  -15.62613
       H    17.25509    7.96489  -15.17815
       O    17.99269    8.10982  -15.82241
      H1    18.00883    7.28026  -16.34528
       H    18.65303   11.35344   -6.50163
       O    18.18587   11.21300   -7.33072
      H1    17.54983   10.49874   -7.18739
       H    17.63725    3.03592  -11.62343
       O    16.88356    3.13537  -11.01645
      H1    16.36386    3.84664  -11.46644
       H    14.04314    7.32493  -11.41808
       O    14.27727    7.85239  -12.19848
      H1    14.82393    8.55992  -11.77656
       H    16.82919    5.12039  -14.22861
       O    17.17550    4.31508  -14.63551
      H1    16.35400    3.73903  -14.69064
       H    15.67485    2.02774  -11.46124
       O    14.92487    1.42809  -11.58151
      H1    14.18201    1.86310  -11.92498
       H    14.47198    3.35589  -13.72801
       O    14.92534    2.97302  -14.48711
      H1    14.34890    3.18227  -15.23338
       H    16.16009    8.72137  -10.21861
       O    16.92592    8.30321  -10.60853
      H1    16.90611    8.18685  -11.55858
       H    18.35909    6.92286   -6.69011
       O    17.68071    6.88823   -5.98834
      H1    18.09262    7.15144   -5.16904
       H    17.66499    5.45059  -16.27297
       O    18.21710    5.71068  -17.04484
      H1    19.12214    5.91092  -16.75105
       H    15.38649    6.98430  -15.60930
       O    15.69515    7.11689  -14.68340
      H1    15.11327    7.65820  -14.15181
       H    14.21087    3.29739   -7.81950
       O    15.01804    3.44851   -7.26635
      H1    15.26834    2.48910   -7.06156
       H    16.30100    3.98312   -8.10172
       O    17.15992    4.26461   -8.53154
      H1    17.11470    3.83892   -9.46206
       H    17.31251   -0.10447  -11.26793
       O    17.73633   -0.12953  -10.37130
      H1    17.02306   -0.42369   -9.79950
       H    15.45241    6.06860  -12.19781
       O    15.27990    5.23568  -11.70998
      H1    14.38353    5.02338  -11.97958
       H    19.75674    8.16756   -8.32896
       O    19.74001    7.25643   -8.01430
      H1    19.30510    6.68250   -8.66477
       H    19.15866    8.51744  -14.57451
       O    19.90447    8.80156  -13.99389
      H1    19.79688    9.69110  -13.58217
       H    16.63182   10.51461  -12.97771
       O    16.56632    9.65094  -13.41325
      H1    16.18669    9.70086  -14.29790
       H    16.06987    6.94101   -8.91288
       O    15.25626    6.55269   -8.58561
      H1    15.27804    5.69086   -8.88661
       H    18.13625    2.54757  -13.78387
       O    18.11016    1.91767  -12.98949
      H1    19.00553    1.49281  -13.02384

