84
frame 0 | Written by MDAnalysis XYZWriter (release 2.4.3)
       H     6.40597   13.45116   -1.35635
       O     5.75631   13.52971   -2.06527
      H1     6.22002   13.13731   -2.85474
       H    14.53896   10.88431   -3.29217
       O    14.94515   11.29538   -4.04637
      H1    14.62125   12.22303   -4.03003
       H     6.51076   12.71462   -5.23588
       O     7.07034   12.77121   -4.47043
      H1     7.35784   11.85542   -4.28106
       H     7.13919    9.58215   -4.64097
       O     6.91250   10.20297   -3.93355
      H1     6.04268   10.59515   -4.22263
       H    11.91485   13.82931   -9.49897
       O    12.76749   13.82160   -9.90931
      H1    12.74987   14.36566  -10.72826
       H     9.57054    8.95126   -1.83347
       O     9.73398    9.75623   -1.32213
      H1     9.73039    9.57437   -0.37811
       H     8.22900   10.52280   -1.23848
       O     7.25136   10.70109   -1.15592
      H1     6.92202   10.45207   -2.00130
       H    10.16841   12.56285   -8.81210
       O     9.73629   13.45686   -9.15467
      H1     9.79484   13.60544  -10.11724
       H    10.97579   10.90081   -9.27290
       O    10.92227   11.23660   -8.34181
      H1    10.05434   10.82006   -8.02716
       H    11.19417   16.01915   -7.41648
       O    12.14830   16.05493   -7.41414
      H1    12.34828   15.17180   -7.05895
       H     9.49376   16.93504   -8.45804
       O     9.35377   16.14260   -7.91640
      H1     9.47918   15.32871   -8.45705
       H     7.09706   17.30181   -3.31655
       O     7.82904   17.85364   -2.91090
      H1     8.47295   17.82703   -3.59897
       H    12.36976   11.34997   -2.20651
       O    12.19732   11.04965   -1.28196
      H1    11.27225   10.81179   -1.23067
       H     8.87367   16.76207   -1.06693
       O     9.80176   16.77760   -0.74350
      H1     9.71784   16.61563    0.24232
       H    10.06495    9.55735   -6.68974
       O     9.35454   10.17709   -6.50681
      H1     9.73354   10.95618   -6.08824
       H     8.72415   13.02929   -5.01371
       O     9.60964   12.85765   -5.41731
      H1    10.20466   13.22994   -4.73961
       H     7.99337   12.91632   -8.61171
       O     7.03225   12.67805   -8.68534
      H1     6.69678   13.08395   -9.49298
       H     7.85290    8.00581   -6.54069
       O     8.08513    8.20421   -5.62322
      H1     8.60854    8.99981   -5.79018
       H    11.32038   15.25403   -4.03363
       O    11.51635   14.41466   -3.59746
      H1    11.17122   14.57185   -2.67353
       H    10.81475   13.61577   -0.01070
       O    10.26950   13.92220   -0.80796
      H1    10.37621   14.89153   -0.79024
       H    13.53315   11.54197   -6.52208
       O    12.85050   10.86127   -6.39234
      H1    12.26050   10.96432   -7.18983
       H    11.94849    9.23387   -6.42249
       O    11.52613    8.37725   -6.58664
      H1    11.48064    7.91727   -5.74171
       H     9.17919   16.69067   -5.81922
       O     9.19583   17.56127   -5.40659
      H1     9.45499   18.15305   -6.08012
       H    12.07580   17.55857   -3.48175
       O    11.79075   17.41828   -4.38135
      H1    10.81413   17.54821   -4.42159
       H     6.18309   12.89422   -7.22306
       O     5.44722   12.92082   -6.58407
      H1     5.06030   12.06493   -6.59576
       H    13.91032   14.19280   -3.23283
       O    14.67686   14.01635   -3.71715
      H1    15.31476   13.66263   -3.09849
       H     7.28711   12.29014   -0.14442
       O     7.60973   13.12921    0.22305
      H1     8.45172   13.31655   -0.10140
       H    12.47404   12.69205   -5.88597
       O    12.77313   13.57370   -6.07852
      H1    12.65021   14.03727   -5.21307

