84
frame 4 | Written by MDAnalysis XYZWriter (release 2.4.3)
       H    19.35335    0.56544    9.96939
       O    18.67723    0.96203   10.52004
      H1    19.04296    1.34301   11.29860
       H    17.40016    3.99726    6.00461
       O    17.31795    3.46117    6.76700
      H1    16.35429    3.36515    6.84458
       H    16.86630    5.45608    4.88254
       O    17.78816    5.06471    4.83053
      H1    18.32490    5.60808    5.47131
       H    18.52131    4.31599   10.61446
       O    18.33860    4.98793   11.35096
      H1    18.37290    4.37194   12.12588
       H    18.60537    5.23457    2.02554
       O    19.29102    5.80330    2.44482
      H1    19.91590    5.86856    1.74715
       H    13.77499    3.13010    8.85334
       O    14.38608    3.82771    8.50408
      H1    13.94119    4.66255    8.65417
       H    13.08190   -3.98216    7.82823
       O    14.10909   -3.99258    7.89788
      H1    14.36224   -3.36142    7.17577
       H    19.01959    7.00133    8.35973
       O    18.89807    6.15556    7.75943
      H1    18.61458    5.31401    8.17453
       H    14.48445    4.47938    5.70827
       O    14.64730    3.69482    5.14084
      H1    13.76312    3.69025    4.67002
       H    18.52607   -4.08105    6.47584
       O    18.42740   -3.14313    6.50877
      H1    18.20047   -2.96031    7.43873
       H    14.46319   -1.34002    8.86257
       O    15.07063   -1.55948    9.58830
      H1    15.69905   -2.16214    9.11110
       H    17.18575    1.15540    1.42260
       O    17.51416    1.70111    0.76160
      H1    18.51417    1.63271    0.76028
       H    14.28045   -3.68762    5.24785
       O    14.52817   -2.79607    5.57128
      H1    15.45149   -2.67830    5.31108
       H    15.79664    0.81208    3.37138
       O    16.48622    0.36476    2.87816
      H1    15.96461   -0.25757    2.30071
       H    18.54083    2.47868    9.66010
       O    18.58848    3.25625    9.10214
      H1    17.80042    3.31890    8.51040
       H    17.13597   -0.92244    4.06029
       O    17.24725   -1.85169    4.25614
      H1    17.73360   -1.96837    5.05893
       H    13.40203    0.37259    8.15735
       O    13.47919   -0.44378    7.65167
      H1    13.64155   -0.11734    6.78700
       H    17.25238    0.01061    7.21106
       O    16.91705    0.24731    8.09466
      H1    16.57257   -0.55472    8.52407
       H    17.00915   -3.97905    9.07090
       O    17.43066   -3.11950    9.02324
      H1    18.04523   -3.28924    9.76735
       H    16.00685   -0.60790   10.82155
       O    16.37588   -0.08799   11.51077
      H1    17.15516    0.39521   11.17321
       H    19.13444    0.34535    6.18119
       O    18.33137    0.69729    5.79001
      H1    18.19134    1.52499    6.29923
       H    19.28086   -3.59049    2.86876
       O    18.32909   -3.59789    2.68381
      H1    17.92275   -2.85598    3.21503
       H    13.72550   -1.77903    4.49794
       O    13.23818   -1.41769    3.72211
      H1    13.01151   -0.48348    3.87333
       H    14.97807   -1.98709    0.90136
       O    14.62893   -1.19278    1.27694
      H1    14.33639   -1.41760    2.14070
       H    18.55175   -2.44444   -0.13715
       O    17.81897   -3.00890    0.14245
      H1    18.15112   -3.06363    1.08105
       H    17.32829    3.34016    2.10869
       O    17.10175    4.27183    2.13202
      H1    17.34569    4.56955    3.02931
       H    15.63202    1.19314    6.13847
       O    14.96688    1.07471    5.41338
      H1    14.82152    2.00525    5.33142
       H    19.08743   -0.90115   11.17194
       O    19.43104   -1.40857   11.87514
      H1    19.19817   -1.00671   12.72370

