84
frame 3 | Written by MDAnalysis XYZWriter (release 2.4.3)
       H   -18.63884   -0.40365   -5.34703
       O   -18.64347    0.55571   -5.35171
      H1   -18.09469    0.72436   -4.55167
       H   -14.22267    2.10581   -5.59909
       O   -13.42593    1.67501   -5.23481
      H1   -12.86867    1.48554   -5.95055
       H   -17.24162   -5.77510   -2.87538
       O   -18.14338   -5.70495   -2.44678
      H1   -18.73357   -5.32468   -3.13037
       H   -16.81575   -4.92136   -6.32932
       O   -17.53788   -5.21773   -5.74818
      H1   -18.02887   -4.37906   -5.48257
       H   -17.75007   -4.23237   -0.68465
       O   -18.23963   -4.38078    0.11704
      H1   -18.38204   -3.51517    0.47966
       H   -14.72270   -5.46604   -3.69823
       O   -15.58736   -5.14239   -3.70119
      H1   -16.01591   -5.42159   -4.47266
       H   -13.48993   -3.78210   -1.05401
       O   -12.82998   -3.08453   -1.32554
      H1   -12.53072   -2.66017   -0.54287
       H   -15.61631   -1.38210   -8.44880
       O   -15.01273   -2.13720   -8.47132
      H1   -14.74085   -2.12534   -9.39046
       H   -15.66205   -3.62352   -4.14685
       O   -15.86879   -2.70317   -4.28404
      H1   -15.01746   -2.31097   -4.59538
       H   -14.58634   -5.16967   -7.38708
       O   -14.81790   -4.54750   -6.65681
      H1   -14.89930   -3.66406   -7.11657
       H   -16.24024   -1.10616   -0.19635
       O   -16.51833   -0.79340    0.64012
      H1   -15.74219   -1.05560    1.16584
       H   -19.72905   -2.14481   -7.75859
       O   -18.82069   -2.37585   -7.88429
      H1   -18.36178   -1.50832   -7.84546
       H   -18.20021   -2.41707   -6.13713
       O   -18.19842   -2.46123   -5.15807
      H1   -17.22097   -2.45176   -4.88727
       H   -13.40235   -1.08245   -3.84689
       O   -13.61991   -1.23552   -4.78359
      H1   -13.94723   -0.40264   -5.06352
       H   -15.59476   -8.11115   -5.40856
       O   -15.01893   -7.37160   -5.14467
      H1   -14.29709   -7.29617   -5.81117
       H   -13.11768   -6.40664   -7.77398
       O   -12.92262   -6.78636   -6.91472
      H1   -12.45805   -6.05617   -6.42022
       H   -17.46699    0.33580   -7.00414
       O   -17.42404   -0.24367   -7.74660
      H1   -17.86488    0.19510   -8.44918
       H   -11.76293   -4.92744   -3.72954
       O   -11.43468   -5.11922   -2.85526
      H1   -11.75277   -4.33298   -2.31649
       H   -19.44232   -0.51827    0.66767
       O   -19.08765   -1.40132    0.51685
      H1   -18.08576   -1.27270    0.54548
       H   -18.95978   -2.49841   -3.65633
       O   -18.98070   -2.22968   -2.69554
      H1   -19.75695   -1.65232   -2.64882
       H   -16.11645   -2.59120   -2.62067
       O   -16.49053   -2.59512   -1.72398
      H1   -17.47541   -2.61002   -1.94794
       H   -14.12508   -7.09847   -3.56089
       O   -13.70178   -7.15059   -2.69026
      H1   -12.73440   -7.22798   -2.81187
       H   -19.38428   -7.94161   -4.94554
       O   -18.88137   -7.81879   -5.75251
      H1   -18.38887   -6.97300   -5.61260
       H   -13.17122    0.10634   -1.99999
       O   -13.88445   -0.62343   -2.16402
      H1   -13.49880   -1.33055   -1.65017
       H   -14.98052    1.21685   -1.38486
       O   -15.63050    1.87397   -1.11050
      H1   -15.44614    2.72459   -1.56716
       H   -15.76572    1.08664   -3.31834
       O   -16.14074    0.52705   -3.97763
      H1   -16.29975   -0.22416   -3.44998
       H   -13.27343   -4.32978   -5.62140
       O   -12.37938   -4.37187   -5.27148
      H1   -11.95042   -3.58114   -5.55269
       H   -14.94467   -5.51789   -0.36590
       O   -14.72808   -4.56889   -0.23738
      H1   -15.56284   -4.10979   -0.44221

