84
frame 0 | Written by MDAnalysis XYZWriter (release 2.4.3)
       H    18.40386  -10.88826   15.01925
       O    18.49601  -11.27390   15.88154
      H1    17.76187  -11.91948   15.88235
       H    11.62335   -7.65926   10.82613
       O    10.73225   -7.26132   10.92036
      H1    10.97414   -6.41091   11.27565
       H     8.79596  -14.68830   13.21702
       O     9.44172  -15.32698   13.62540
      H1     9.03815  -15.58625   14.47505
       H    12.25001  -13.94326   15.34204
       O    11.32085  -14.03798   15.69509
      H1    10.72259  -14.09668   14.93310
       H    14.07006   -7.98516   11.40223
       O    13.45323   -8.14476   10.66594
      H1    13.79824   -7.57357    9.98407
       H    13.12877  -11.79985   14.77905
       O    13.00695  -11.13991   14.09248
      H1    12.46353  -11.56154   13.42129
       H    13.34459  -12.85803   17.58961
       O    13.28301  -12.21651   16.88213
      H1    13.96762  -11.52262   16.98024
       H    13.01424  -14.85423    9.95432
       O    13.10098  -13.90049   10.12374
      H1    12.18519  -13.58819    9.88127
       H    10.56683   -8.55901   16.78380
       O     9.97085   -8.25082   16.10818
      H1     9.13412   -7.89294   16.48041
       H    12.89280   -7.31846   15.12694
       O    12.26803   -6.58838   15.19137
      H1    11.55742   -6.99712   15.62155
       H    12.28465  -10.14543   17.29661
       O    11.60976   -9.54734   17.60231
      H1    10.90263  -10.24020   17.73442
       H    12.65832   -9.45144   19.07889
       O    13.29423   -9.24982   19.77018
      H1    13.62699   -8.33531   19.64276
       H    13.50544   -9.65930   10.14238
       O    13.69164  -10.48807    9.63737
      H1    12.96457  -11.10382    9.71532
       H     9.98285  -12.39794   18.72363
       O    10.11044  -12.07851   17.81647
      H1    10.31612  -12.76917   17.18664
       H    14.25033   -9.00176   15.69169
       O    13.92619   -8.74266   14.83189
      H1    13.53241   -9.58217   14.51729
       H    10.98190  -12.00928   11.49373
       O    11.60750  -12.46575   12.09130
      H1    12.32128  -12.75207   11.48412
       H     9.13873   -8.91337   13.20091
       O     8.80302   -8.38713   12.46092
      H1     9.55779   -7.98069   12.06920
       H    14.71152  -14.37419   15.12952
       O    14.01863  -14.10644   14.55292
      H1    14.44920  -13.86352   13.70222
       H    15.60843   -9.74849   17.53544
       O    14.63204   -9.76869   17.37912
      H1    14.36805   -9.68086   18.32248
       H    10.98155  -17.09722   16.97813
       O    11.17857  -16.84800   16.05284
      H1    11.10346  -15.90333   16.05812
       H    14.63988   -7.56152   13.57645
       O    15.14508   -7.50443   12.70445
      H1    15.53050   -6.59743   12.69344
       H    15.43643  -12.30314   12.11750
       O    15.37941  -13.26529   12.07201
      H1    14.68007  -13.48469   11.48810
       H    12.38215  -16.69878   12.42739
       O    13.26698  -16.24794   12.61693
      H1    12.93806  -15.52118   13.17606
       H    17.14727  -14.93742   15.97722
       O    16.41515  -15.37695   15.45571
      H1    15.91611  -15.83099   16.20522
       H    17.97507   -9.00452   13.99506
       O    17.94293   -9.86783   13.52530
      H1    17.33394   -9.72070   12.81799
       H     9.69376   -9.74992   15.13015
       O     9.41149  -10.38515   14.48287
      H1    10.12098  -11.00288   14.34381
       H     7.63630  -10.95423   14.16678
       O     6.79351  -11.09430   13.70684
      H1     6.12550  -11.03808   14.43875
       H    15.30139  -10.32546   10.94967
       O    15.82526  -10.32098   11.76599
      H1    15.41895   -9.71631   12.33501

