84
frame 4 | Written by MDAnalysis XYZWriter (release 2.4.3)
       H    -4.00929   -3.06578   12.82989
       O    -3.95409   -2.12347   12.60244
      H1    -3.03658   -2.08005   12.39355
       H    -7.90192   -4.94860   18.35546
       O    -7.88506   -5.17612   19.28625
      H1    -7.13912   -5.76099   19.36123
       H    -9.69292   -3.45927   16.44186
       O   -10.61528   -3.73950   16.38817
      H1   -10.72325   -4.66864   16.25763
       H    -0.44103   -1.82525   17.53648
       O     0.17195   -2.24039   16.92505
      H1     0.16300   -3.12676   17.29181
       H    -4.26866   -5.15072   13.65292
       O    -5.00192   -4.91187   13.04944
      H1    -5.04559   -5.55050   12.35303
       H    -8.08747   -4.08626   13.31612
       O    -7.51945   -3.70708   14.00733
      H1    -6.62684   -4.00721   13.68105
       H    -1.14536   -4.20871   13.91557
       O    -2.08889   -4.49700   13.98400
      H1    -2.08366   -4.56504   14.99266
       H    -1.92520   -7.21444   12.35492
       O    -2.18574   -7.01191   13.20866
      H1    -1.97752   -6.10329   13.46435
       H    -9.59618   -1.89921   19.83542
       O   -10.42696   -1.40810   19.62649
      H1   -10.80695   -1.87842   18.88513
       H     1.38012   -1.31082   14.45440
       O     0.40635   -1.16140   14.40059
      H1     0.02876   -1.74595   15.05592
       H    -6.60785   -0.82394   19.21076
       O    -6.86241   -0.51019   18.35299
      H1    -6.10494   -0.61080   17.74004
       H    -5.56714   -1.07938   13.47543
       O    -6.23636   -0.78643   14.12644
      H1    -6.94791   -1.42160   14.01721
       H    -1.73975   -0.40887   18.83848
       O    -1.74337   -1.40084   18.82831
      H1    -1.43158   -1.68627   19.69894
       H    -5.11016    1.73993   15.06224
       O    -4.18213    1.45839   15.19947
      H1    -3.76363    2.10861   15.85094
       H    -0.61444    1.62643   18.47950
       O    -0.29132    1.02689   17.83965
      H1     0.14476    0.27756   18.27575
       H    -2.11093   -5.59096   19.84485
       O    -2.67299   -5.35146   19.11983
      H1    -3.29137   -4.62363   19.33340
       H    -2.23029   -4.52191   17.49068
       O    -1.78006   -4.35643   16.60875
      H1    -1.72353   -3.40222   16.49130
       H    -7.98153   -1.77393   17.34355
       O    -8.31857   -2.43958   16.66845
      H1    -8.56075   -1.83103   15.89653
       H    -0.39780   -5.86166   17.12619
       O    -0.00429   -6.75886   17.29478
      H1    -0.42544   -7.36150   16.68969
       H    -8.03016    2.02791   19.79798
       O    -8.05475    1.77881   18.89341
      H1    -7.51533    0.95646   18.84309
       H     1.52723   -2.41644   18.25389
       O     1.78788   -2.49320   19.19121
      H1     2.72990   -2.25030   19.32625
       H    -7.56390   -4.42459   15.98249
       O    -7.58744   -5.28123   16.43054
      H1    -7.36127   -5.94073   15.78255
       H    -9.35654   -6.63703   18.43347
       O    -9.51166   -6.67794   17.45499
      H1    -8.85188   -6.13911   17.03940
       H    -4.97043   -1.25110   15.77543
       O    -4.61414   -1.14784   16.65396
      H1    -4.10687   -0.34726   16.56294
       H    -3.83438   -8.43251   17.90345
       O    -4.30290   -7.62030   18.01670
      H1    -3.60290   -7.09055   18.41814
       H    -3.26735   -2.52657   19.15072
       O    -4.07764   -3.03933   18.96869
      H1    -4.23299   -2.73554   18.04538
       H    -2.04034    2.25905   13.10741
       O    -2.50565    1.53123   12.71996
      H1    -3.07387    1.19704   13.44262
       H    -5.15554   -6.33187   15.04561
       O    -4.28590   -6.25799   15.52587
      H1    -4.35341   -6.75128   16.33654

