84
frame 3 | Written by MDAnalysis XYZWriter (release 2.4.3)
       H    -4.97849   -4.29080  -11.11781
       O    -4.72100   -4.35821  -10.17498
      H1    -4.11140   -3.67648   -9.95219
       H    -5.04408  -11.84405  -16.02373
       O    -4.69917  -12.72075  -15.63925
      H1    -4.26222  -13.27605  -16.34086
       H    -6.38130  -10.92773  -10.52124
       O    -6.27352   -9.98259  -10.85490
      H1    -5.34371   -9.79941  -10.81131
       H     0.52684   -9.86538  -12.03719
       O     0.81602   -9.52926  -12.89868
      H1     0.53873  -10.16681  -13.61997
       H    -8.76235   -9.72263  -12.88075
       O    -9.52259  -10.32090  -12.98747
      H1    -9.29583  -11.04546  -13.54399
       H     0.81856   -6.99506  -10.50173
       O    -0.04906   -6.71103  -10.14552
      H1    -0.49780   -6.36716  -10.97719
       H    -5.34850  -14.90262  -11.81294
       O    -4.99199  -14.05329  -12.07975
      H1    -5.77568  -13.48403  -12.08401
       H    -5.87907   -9.21869  -14.64840
       O    -5.92744   -9.86195  -15.36055
      H1    -6.84635  -10.02250  -15.53215
       H    -3.79934   -8.95924  -12.23054
       O    -3.69090   -9.04403  -11.26659
      H1    -3.17967   -8.26092  -11.00743
       H    -5.70921  -11.81699  -13.85056
       O    -6.49877  -11.91748  -13.28905
      H1    -6.70570  -11.10171  -12.84613
       H    -7.08111   -8.30305  -12.19929
       O    -7.60405   -8.23617  -13.02775
      H1    -7.36785   -7.36565  -13.43055
       H    -7.72057   -8.05037  -10.13630
       O    -7.13296   -7.28888  -10.03104
      H1    -6.35672   -7.69059   -9.57715
       H    -3.96453  -13.58565  -10.69335
       O    -3.12004  -13.56710  -10.23726
      H1    -3.14205  -13.08558   -9.45155
       H    -4.04773   -9.52389  -17.05340
       O    -3.23103   -9.45803  -16.56423
      H1    -3.41080   -9.37478  -15.58689
       H    -1.24313   -7.75038  -14.67051
       O    -1.02565   -7.50304  -13.74736
      H1    -0.41323   -8.16561  -13.38027
       H    -0.97029  -10.88991  -10.77448
       O    -0.03563  -10.77860  -10.42809
      H1     0.31250  -11.69634  -10.45798
       H    -3.54178   -7.97504  -13.97190
       O    -3.25632   -8.87227  -14.01061
      H1    -2.31187   -8.74984  -14.02965
       H    -4.37250   -5.86983   -9.06363
       O    -4.34185   -6.68919   -8.57689
      H1    -3.53930   -7.18630   -8.80186
       H    -3.09637  -11.40358   -7.91090
       O    -3.61441  -12.20794   -7.77195
      H1    -4.47168  -11.85253   -7.56955
       H    -2.64011  -10.59291  -11.38319
       O    -2.28797  -11.51785  -11.59382
      H1    -2.65819  -12.20025  -10.98097
       H    -3.15799   -5.77605  -11.00843
       O    -2.53246   -6.44691  -11.33534
      H1    -2.48556   -6.42515  -12.30232
       H    -3.22723   -5.72865  -14.64822
       O    -3.76644   -6.24165  -14.01518
      H1    -4.73099   -6.13991  -14.34272
       H    -6.52174   -5.41699  -14.61732
       O    -6.42530   -6.37331  -14.54406
      H1    -6.97785   -6.70624  -15.28167
       H    -2.96905  -12.19137  -14.53242
       O    -2.02529  -12.32303  -14.31832
      H1    -2.07140  -12.22439  -13.35483
       H    -1.19290   -7.89909   -9.46092
       O    -1.89588   -8.20409   -8.85866
      H1    -1.60161   -9.06678   -8.57344
       H    -2.40475   -7.91241  -16.43984
       O    -1.98054   -7.03002  -16.33686
      H1    -1.39799   -6.93926  -17.08575
       H    -0.00199   -5.88964  -14.00303
       O     0.26025   -4.97571  -14.04939
      H1     0.69803   -4.86216  -14.90523
       H    -0.70391  -11.09471  -15.08039
       O    -0.04191  -10.40757  -15.17913
      H1     0.69475  -10.63546  -15.79379

