84
frame 4 | Written by MDAnalysis XYZWriter (release 2.4.3)
       H   -13.74267  -11.48108    9.96554
       O   -13.69309  -12.23104    9.37259
      H1   -13.55400  -11.84168    8.50238
       H   -17.97532  -10.21632   12.28345
       O   -17.81399  -11.15306   12.02639
      H1   -18.42229  -11.65260   12.60904
       H   -16.17509  -19.20909    6.70353
       O   -16.77899  -18.48111    6.96202
      H1   -17.05924  -18.86530    7.77153
       H   -14.26058  -19.04380   11.67248
       O   -14.42130  -18.21358   12.19307
      H1   -13.53755  -18.03299   12.50075
       H   -17.53250  -15.33861    5.70570
       O   -18.17129  -14.72181    6.15334
      H1   -18.95237  -15.26381    6.38767
       H   -12.28277  -10.21566   11.49087
       O   -11.47064  -10.67148   11.68399
      H1   -11.72482  -11.60015   11.96185
       H   -17.50729  -14.33758    2.21241
       O   -17.17624  -13.43755    2.51762
      H1   -16.98543  -13.60658    3.42511
       H   -17.85343  -15.52056   11.62701
       O   -17.13892  -15.10734   12.13446
      H1   -17.45021  -14.27408   12.49844
       H   -10.42685  -14.33964    9.15165
       O   -10.23547  -15.05693    9.75697
      H1   -10.77698  -15.80243    9.54289
       H   -15.03820  -13.25823    9.04951
       O   -15.66503  -14.04601    8.97948
      H1   -15.31940  -14.74714    9.58621
       H   -15.07407  -12.91484   12.69071
       O   -15.34771  -11.98061   12.74469
      H1   -16.19449  -11.77777   12.32074
       H   -18.48689  -13.04001    6.66903
       O   -18.75194  -12.40424    7.34621
      H1   -18.33829  -12.73569    8.17516
       H   -14.34487  -14.89149   12.45555
       O   -14.14957  -14.37910   13.23936
      H1   -14.66038  -14.72549   14.00117
       H   -10.70668  -11.83010    7.29156
       O   -10.64709  -11.15878    6.61525
      H1    -9.74304  -10.80030    6.69880
       H   -12.65697  -18.63668    7.38679
       O   -12.86947  -18.17440    8.17421
      H1   -13.39239  -18.77872    8.75472
       H   -14.68633   -9.71632   11.55582
       O   -14.34509   -9.90039   10.70457
      H1   -14.34509   -9.09094   10.10967
       H   -18.71964  -11.20574    6.11804
       O   -18.80901  -10.52313    5.40146
      H1   -19.27242  -11.00823    4.66849
       H   -11.13282  -14.19832   11.32190
       O   -11.65154  -13.52719   11.76581
      H1   -12.43091  -14.05400   12.18646
       H   -14.39162  -12.15062    3.64487
       O   -14.68484  -12.64622    4.39085
      H1   -14.46168  -12.09208    5.17091
       H   -17.06447  -13.23953    9.61437
       O   -17.93201  -12.78471    9.79652
      H1   -17.73496  -11.99460   10.28294
       H   -19.23219  -16.99207   10.59544
       O   -19.18628  -16.03979   10.75443
      H1   -19.10169  -15.61974    9.89763
       H   -13.69882  -16.30129    7.47129
       O   -14.05168  -15.50130    7.02559
      H1   -14.72890  -15.06493    7.64638
       H   -16.18220  -17.09696    5.65955
       O   -15.80889  -16.42230    5.13080
      H1   -15.16164  -16.05873    5.71813
       H   -12.35945  -13.07611    8.53723
       O   -11.46867  -13.30028    8.13436
      H1   -11.73074  -13.55767    7.23366
       H   -17.97555  -16.64525   13.39977
       O   -18.86602  -16.87678   13.76905
      H1   -18.72515  -17.69051   14.26820
       H   -14.14352  -10.54661    6.41598
       O   -13.62250  -11.34308    6.57498
      H1   -12.72726  -11.16696    6.19216
       H   -12.92054  -13.62280    5.26780
       O   -12.08744  -13.99458    5.64403
      H1   -12.49567  -14.75076    6.12800
       H   -15.71535  -15.32957   11.34072
       O   -14.96390  -15.71578   10.89881
      H1   -14.88878  -16.64279   11.21551

