84
frame 3 | Written by MDAnalysis XYZWriter (release 2.4.3)
       H   -10.92461    5.51932   12.47656
       O   -11.83727    5.76561   12.68073
      H1   -11.88343    6.75770   12.66689
       H   -16.50393    5.43831    7.36425
       O   -15.61277    5.02806    7.31202
      H1   -15.40721    4.85962    8.23905
       H   -13.74752    3.90196   11.98823
       O   -13.56299    2.94962   12.10652
      H1   -13.10474    2.78196   12.96123
       H   -16.65535    3.10990    7.87981
       O   -17.38201    2.76683    8.43332
      H1   -18.21040    3.23926    8.16292
       H   -12.90737    2.79886   17.11569
       O   -12.00796    2.94714   16.74374
      H1   -11.38768    2.88828   17.52172
       H   -14.38362   -0.62067   14.68882
       O   -13.43635   -0.88598   14.65376
      H1   -13.29569   -1.74727   14.27100
       H   -16.51784    4.93857   10.33876
       O   -15.87802    4.28210   10.06227
      H1   -16.32397    3.58943    9.60168
       H   -14.81499    5.26934   14.16832
       O   -14.55889    5.78629   13.39503
      H1   -13.55975    5.69356   13.39769
       H   -18.95481    5.23719   14.77175
       O   -18.00443    5.22038   14.66646
      H1   -17.93932    4.32973   14.30554
       H   -18.39059    1.91312   14.68723
       O   -18.04214    2.53152   14.08819
      H1   -17.38406    2.16112   13.50608
       H   -15.19633    2.24294   12.49037
       O   -16.09512    1.82228   12.45818
      H1   -16.15986    1.39292   11.51329
       H    -8.20959    2.33668   10.26920
       O    -8.44022    2.31295   11.21317
      H1    -9.19506    1.65269   11.35029
       H   -16.80386    1.10334    9.28244
       O   -16.57475    0.39468    9.92767
      H1   -15.96375   -0.33172    9.62332
       H    -8.16430    5.21803   12.11883
       O    -9.05490    4.79590   11.97255
      H1    -8.95325    3.89881   11.64910
       H   -12.94110    1.81562   11.04236
       O   -12.35602    1.30042   10.40343
      H1   -12.90159    0.51729   10.13196
       H   -16.68806   -0.52680   13.95221
       O   -16.21107   -0.20643   14.76121
      H1   -16.34214   -0.93333   15.43387
       H   -14.79521    8.50270   11.79229
       O   -14.96394    8.54179   12.75462
      H1   -14.72600    7.66938   13.07042
       H   -10.50601    2.58699    7.29113
       O   -10.66621    1.73221    7.62251
      H1   -10.98816    1.83976    8.52563
       H   -12.28193   -0.76535    8.15005
       O   -12.83730   -0.02819    7.81382
      H1   -12.15464    0.61425    7.59837
       H   -13.25765   -1.58691   11.42149
       O   -14.01511   -1.06924   11.08831
      H1   -14.81232   -1.27349   11.62152
       H   -11.44577    5.39336    9.72970
       O   -11.10958    4.63386    9.26674
      H1   -11.35770    3.95964    9.94305
       H   -10.05087    1.97981   15.04607
       O    -9.19715    1.54364   15.19684
      H1    -9.18527    1.22884   16.14467
       H   -10.47036   -2.46235   11.70177
       O   -11.19045   -1.81732   11.62096
      H1   -10.78610   -0.99174   11.82820
       H   -11.16306    0.95436   11.53141
       O   -10.46970    0.69840   12.13187
      H1   -10.77659    0.85154   13.01819
       H   -16.17455    5.22754   15.62988
       O   -15.28316    4.82657   15.83871
      H1   -15.45297    3.99482   16.26467
       H   -11.44585    4.50382   16.00716
       O   -11.31719    5.36415   15.57083
      H1   -11.71650    5.42565   14.68190
       H   -13.86955    5.77230    7.34587
       O   -12.96883    6.05229    7.44195
      H1   -12.48654    5.46544    8.02466
       H   -12.27098    2.18745   15.10528
       O   -12.22297    1.76049   14.26254
      H1   -12.81184    1.02151   14.30919

