84
frame 4 | Written by MDAnalysis XYZWriter (release 2.4.3)
       H    -5.37103   -2.91653  -11.18423
       O    -4.68425   -3.62565  -10.98737
      H1    -3.84976   -3.18710  -10.89303
       H    -2.69392   -5.79887   -6.59105
       O    -3.57908   -6.12105   -6.55430
      H1    -3.67383   -6.58006   -7.39289
       H     0.86440  -10.58904  -10.95521
       O     1.07585   -9.97887  -11.68622
      H1     0.31593   -9.93472  -12.26041
       H     3.58269   -4.95043  -11.30791
       O     3.10382   -4.68182  -12.14645
      H1     2.17792   -5.08280  -12.08653
       H    -0.36147   -5.46746   -6.84209
       O    -0.91360   -5.04281   -6.16199
      H1    -0.45032   -5.17572   -5.30729
       H     0.81226   -3.93299  -10.95256
       O     0.80161   -3.86674  -10.03156
      H1    -0.10448   -4.30792   -9.86576
       H    -0.15650   -6.66918  -10.81488
       O    -0.94958   -6.44404  -10.26762
      H1    -1.79686   -6.39940  -10.76052
       H    -0.55161   -3.36265   -7.08592
       O    -0.24604   -2.60833   -7.51782
      H1     0.45196   -2.98611   -8.11341
       H     3.36371  -10.39961   -8.92133
       O     3.43746   -9.55050   -8.48532
      H1     4.24089   -9.13359   -8.85338
       H     1.73433   -7.94504  -11.62169
       O     1.69051   -7.16348  -11.01649
      H1     2.22117   -7.44877  -10.24394
       H    -3.67327   -9.45381  -12.45051
       O    -3.94194   -9.61034  -11.52844
      H1    -3.34068   -9.16043  -10.93746
       H    -1.55690   -3.44730   -8.55794
       O    -2.45691   -3.61336   -8.94630
      H1    -3.02914   -3.08662   -8.38466
       H     2.62810   -1.14042  -11.66160
       O     2.96324   -1.77138  -12.30018
      H1     3.09320   -2.61388  -11.90205
       H     2.68270   -8.89835   -7.20157
       O     2.17991   -8.22342   -6.69185
      H1     1.79573   -8.81305   -5.99275
       H    -1.72814   -7.23876  -14.16802
       O    -1.11986   -7.01465  -13.44204
      H1    -0.63338   -7.85764  -13.37089
       H    -1.04185  -11.76158  -10.39303
       O    -0.17399  -11.73780   -9.91774
      H1     0.24994  -12.61167   -9.80985
       H    -3.78520   -8.57673  -14.33359
       O    -3.31750   -9.34574  -14.05252
      H1    -2.39671   -9.05116  -14.00504
       H    -4.39410   -5.89940   -9.38875
       O    -4.51258   -6.75209   -8.97780
      H1    -4.04170   -7.32511   -9.54647
       H    -0.59902  -11.16438   -8.08443
       O    -1.30875  -10.53926   -7.73034
      H1    -1.08652  -10.17049   -6.92055
       H    -3.73464   -5.34183  -11.30344
       O    -3.28780   -6.17648  -11.49426
      H1    -3.47373   -6.16096  -12.47687
       H     3.73536   -5.72740  -13.56254
       O     4.21948   -6.09007  -14.29868
      H1     3.89154   -5.52016  -15.01325
       H     1.40350   -3.49008  -12.89170
       O     0.45740   -3.34081  -13.07570
      H1     0.29595   -3.98862  -13.74222
       H     1.13608   -6.93806   -7.66762
       O     0.64618   -6.24124   -7.98004
      H1     0.22752   -6.62528   -8.73984
       H    -1.91177   -7.96528   -9.29657
       O    -2.52567   -8.73573   -9.30028
      H1    -2.05025   -9.50140   -8.93057
       H     0.04491   -6.14395  -14.47540
       O     0.80446   -5.56017  -14.60027
      H1     1.23687   -5.66253  -15.42624
       H     5.15022   -6.66425  -10.12767
       O     5.02572   -7.63466  -10.03408
      H1     5.37113   -7.97727  -10.91909
       H    -0.73057  -10.72139  -14.05775
       O    -0.47502   -9.81686  -13.86948
      H1     0.06327   -9.51292  -14.60221
       H     3.12156   -2.10527   -8.52312
       O     2.86933   -3.01762   -8.29417
      H1     2.31561   -3.38015   -8.99757

