84
frame 4 | Written by MDAnalysis XYZWriter (release 2.4.3)
       H    16.29141   -1.04432   12.89210
       O    16.09719   -1.66602   13.64086
      H1    15.58241   -1.05340   14.25362
       H    14.84155    5.52131   17.79307
       O    14.48306    5.30212   16.87025
      H1    14.41735    6.19542   16.45575
       H    12.96592    4.68211   17.57262
       O    12.10165    4.53067   17.99093
      H1    11.77118    3.59758   17.94967
       H    17.12164   -1.72176   18.05703
       O    16.27719   -2.05474   17.71236
      H1    15.69730   -1.66831   18.40659
       H    16.57808    0.43638   15.98769
       O    15.82958   -0.16103   15.93397
      H1    15.91951   -0.87839   16.61061
       H    18.46404    2.14173   13.72792
       O    18.87137    2.43353   12.90587
      H1    19.60189    2.97249   13.18160
       H    11.06470    3.09159   14.77950
       O    11.54857    2.37531   15.17881
      H1    12.32713    2.23892   14.68349
       H    13.56750    1.98895   13.51573
       O    13.41739    1.05779   13.32061
      H1    12.70201    1.03071   12.67301
       H    14.83649    3.38657   13.22749
       O    14.03413    3.66834   13.70161
      H1    14.22481    3.77351   14.64422
       H    12.53618   -1.69615   14.44735
       O    12.95447   -1.42772   15.30537
      H1    13.25332   -0.52619   15.06250
       H    19.14470   -1.15229   17.14599
       O    19.46193   -2.05965   17.35530
      H1    19.20801   -2.55581   16.56758
       H    16.00685   -0.60790   10.82155
       O    16.37588   -0.08799   11.51077
      H1    17.15516    0.39521   11.17321
       H    10.17572    0.94887   14.37334
       O     9.75747    0.10928   14.40095
      H1     8.81139    0.34534   14.13393
       H    14.96886    2.53424   18.31007
       O    15.43303    2.99060   19.01634
      H1    16.35387    2.68958   19.03444
       H    11.89297   -3.04446   17.50144
       O    12.10429   -2.11181   17.72006
      H1    12.49460   -1.71185   16.83406
       H    15.35795    3.26514   10.75112
       O    15.58286    2.80942   11.56626
      H1    15.62214    1.92193   11.28110
       H    18.63347    2.17299   19.20724
       O    17.89620    2.16613   18.63005
      H1    17.55151    1.27108   18.79186
       H    13.08624    6.75101   12.99029
       O    13.56026    6.09807   12.50651
      H1    13.56773    5.34174   13.09198
       H    15.48373   -3.66525   17.48476
       O    15.27785   -4.59817   17.28133
      H1    16.12317   -5.05905   17.04959
       H    10.13426    2.19403   18.98894
       O    10.90441    1.78705   18.56102
      H1    11.31184    1.27732   19.29022
       H    14.45203    1.07847   16.41287
       O    14.14194    2.02205   16.47386
      H1    13.17803    2.02354   16.56051
       H    19.14876    0.38699   14.47246
       O    18.73805   -0.45996   14.26329
      H1    17.74677   -0.43753   14.33519
       H    14.35433   -1.85477   20.02764
       O    14.16629   -1.26912   19.29178
      H1    13.57428   -1.81870   18.71302
       H    14.66526   -4.58261   15.30787
       O    14.46699   -4.27770   14.42533
      H1    15.02601   -3.51416   14.23298
       H    10.58248    3.88395   12.25607
       O    10.83643    4.47151   13.01783
      H1    11.77156    4.62425   12.88955
       H    16.06974    4.86773   16.24150
       O    16.95318    4.45044   16.32487
      H1    16.95626    4.02401   17.18938
       H     9.78586   -0.00820   16.08633
       O     9.75887   -0.30304   17.01368
      H1    10.39761    0.34278   17.34412
       H    18.80590    2.21049   15.87825
       O    17.91650    1.93947   15.63092
      H1    17.24528    2.61341   15.95103

