84
frame 5 | Written by MDAnalysis XYZWriter (release 2.4.3)
       H   -13.82210   10.33023    7.15487
       O   -13.26253   10.11956    7.94643
      H1   -13.85722    9.67363    8.59963
       H    -8.84865   14.56953    6.05082
       O    -9.23651   15.38830    6.48645
      H1    -9.12661   16.06886    5.81571
       H   -10.78048   16.45498   11.35675
       O   -10.25829   15.70242   10.99311
      H1   -10.77650   14.94100   11.36542
       H    -5.57128   13.02261    8.65026
       O    -5.36633   13.83656    9.14454
      H1    -6.24102   14.24169    9.32433
       H   -13.85322   17.79257    9.05040
       O   -13.68392   18.33440    9.84408
      H1   -13.03070   17.92294   10.41037
       H   -11.36475   10.15581    7.53942
       O   -10.59218    9.94942    6.94110
      H1   -10.89938   10.01402    6.01411
       H    -9.77158   17.67479    4.21045
       O    -8.98267   17.75072    4.71488
      H1    -8.22429   17.48050    4.10408
       H    -8.32642   14.80805   12.81460
       O    -7.39219   14.70621   12.79563
      H1    -7.32052   14.24624   13.67680
       H   -11.87086   19.21010    6.57147
       O   -12.28788   19.86629    5.97803
      H1   -12.61086   19.44430    5.17336
       H   -13.54154   15.71812    7.55010
       O   -14.25154   16.30710    7.75023
      H1   -14.88042   15.92038    8.35606
       H   -10.59277   16.02880    3.25325
       O   -11.05344   16.82090    3.53828
      H1   -11.77054   16.45893    4.08903
       H   -12.24879   17.01221   12.80512
       O   -12.05016   17.59976   11.98193
      H1   -11.84991   18.43547   12.46023
       H   -12.81781   13.43117   12.14748
       O   -12.73186   14.13311   11.47074
      H1   -12.76354   13.63635   10.63701
       H    -7.36620   18.65510    6.64768
       O    -7.33754   18.02410    7.42651
      H1    -7.98803   17.36185    7.11932
       H   -10.52555   15.07874    9.42810
       O   -10.89313   14.90604    8.50679
      H1   -10.25910   15.14550    7.81793
       H    -9.78904   14.00192    3.48456
       O    -9.32227   14.69354    3.05785
      H1    -9.58116   14.69468    2.12172
       H   -11.28758   12.45148    4.14321
       O   -10.68984   13.09448    4.51053
      H1   -10.04953   12.82762    5.19967
       H   -11.39307   17.44231    7.48863
       O   -10.86481   18.22593    7.62788
      H1   -10.73566   18.28891    8.62577
       H   -14.39541   15.14515   11.70039
       O   -15.36170   15.29435   11.86125
      H1   -15.47645   16.14068   12.38795
       H    -9.02002   17.95189   10.07441
       O    -9.42615   18.74335   10.46934
      H1    -9.00482   19.42241    9.97101
       H   -12.45690   10.54663    9.55655
       O   -11.86741   10.54210   10.30921
      H1   -12.36772   10.33869   11.10848
       H   -16.27827   13.67275    5.79307
       O   -15.42151   13.48407    6.19975
      H1   -15.28527   12.56502    6.02908
       H   -12.44838   14.42773    4.84076
       O   -12.78356   15.28278    5.09614
      H1   -13.65524   14.95658    5.47177
       H    -7.37948   14.71483   10.67717
       O    -7.54592   15.05341    9.79333
      H1    -8.33870   14.62771    9.53495
       H    -9.80661   12.73660    7.76381
       O    -9.23555   12.54992    7.01081
      H1    -9.42687   11.60274    6.88055
       H    -8.82523   11.66788   10.73648
       O    -9.53207   11.92580   10.14722
      H1   -10.36265   11.61730   10.45852
       H    -5.65865   10.69095    8.02172
       O    -6.08157   11.53071    7.70524
      H1    -7.01344   11.51464    7.79523
       H   -13.03918   12.46485    8.34026
       O   -13.10654   13.29429    8.90709
      H1   -12.34836   13.85303    8.60071

