84
frame 5 | Written by MDAnalysis XYZWriter (release 2.4.3)
       H    -9.14185  -18.98718    2.21022
       O    -9.29888  -19.62909    1.45696
      H1   -10.25874  -19.83358    1.58057
       H    -0.47928  -16.82021    2.33235
       O     0.50976  -16.91164    2.46264
      H1     0.83160  -15.99108    2.66755
       H    -3.68811  -17.48384   -3.92282
       O    -2.79998  -17.67833   -4.10021
      H1    -2.45086  -16.98790   -4.64826
       H    -5.72284  -17.52021    5.81071
       O    -4.91893  -16.91241    5.69731
      H1    -5.27079  -16.06809    5.41733
       H    -2.83025  -19.29847    2.53017
       O    -2.13750  -19.91163    2.78747
      H1    -1.82758  -19.57275    3.61935
       H    -5.78500  -18.60333   -2.17869
       O    -6.59089  -18.80786   -1.64588
      H1    -7.06925  -17.92708   -1.68673
       H     0.21866  -14.49778    4.87919
       O     0.86469  -14.48084    5.60507
      H1     1.71024  -14.11777    5.24774
       H    -3.24350  -16.26016    7.14068
       O    -2.30053  -16.17814    7.28119
      H1    -2.09144  -16.86570    6.66359
       H    -7.60217  -16.73866    2.75876
       O    -6.73789  -16.28053    2.75785
      H1    -6.62557  -15.95908    1.80626
       H    -5.34069  -12.19726    1.20866
       O    -5.29624  -12.40564    2.15708
      H1    -5.13294  -13.32685    2.26928
       H    -2.33637  -17.13285    4.50041
       O    -1.98243  -17.77870    5.17139
      H1    -1.02835  -17.85829    4.95714
       H    -3.64480  -18.76206    7.50766
       O    -3.48083  -18.62211    8.46065
      H1    -2.57126  -18.39849    8.57852
       H     0.55370  -18.92204   -4.97515
       O     0.98185  -18.73002   -4.15361
      H1     0.31219  -18.93704   -3.42451
       H    -5.13628  -15.10709   -0.41336
       O    -4.23716  -14.85299   -0.56693
      H1    -3.69626  -15.65659   -0.56856
       H    -2.91210  -14.71238    6.56913
       O    -3.28147  -13.90016    6.15188
      H1    -3.99723  -14.13531    5.51889
       H    -5.98761  -13.75040    4.27905
       O    -5.49286  -14.57157    4.31698
      H1    -6.00370  -15.16859    3.67704
       H    -8.42784  -17.99566    6.42116
       O    -7.56233  -17.99876    6.85880
      H1    -7.34854  -17.04053    7.06031
       H    -5.67923  -19.25791   -0.14027
       O    -4.92777  -19.66087    0.42556
      H1    -4.75129  -18.95852    1.07169
       H    -1.41580  -15.38200   -0.93231
       O    -1.90525  -16.20691   -0.72612
      H1    -1.35569  -16.93740   -1.03201
       H    -2.08609  -15.89111    1.06636
       O    -2.07188  -16.06981    2.03891
      H1    -1.90379  -15.22038    2.53601
       H     0.46963  -17.45626    7.34588
       O     0.85598  -17.30814    6.51396
      H1     0.72713  -16.36772    6.32583
       H    -3.45644  -17.25827    2.46841
       O    -4.19153  -17.84668    2.41279
      H1    -4.91571  -17.28823    2.71282
       H    -7.54059  -15.67874   -0.74968
       O    -7.12589  -15.15873   -0.04301
      H1    -7.60994  -14.34697    0.15474
       H    -1.58187  -18.17819   -2.62857
       O    -1.11712  -18.56632   -1.88570
      H1    -1.63320  -19.19307   -1.42539
       H     1.96024  -17.06845    0.91121
       O     2.58358  -16.52957    0.32397
      H1     3.37728  -16.35615    0.86996
       H     0.81639  -18.51313    5.13084
       O     0.54609  -19.05237    4.34771
      H1     1.02128  -18.56746    3.59971
       H    -0.77084  -13.31964    3.49214
       O    -1.22693  -14.13692    3.78032
      H1    -1.92715  -13.96646    4.46044
       H    -3.36126  -18.97045    5.44414
       O    -3.59072  -19.62333    6.06402
      H1    -2.75527  -20.13492    6.16733

