84
frame 5 | Written by MDAnalysis XYZWriter (release 2.4.3)
       H   -15.60916   12.68878   17.95494
       O   -15.87626   11.75256   17.72468
      H1   -15.30321   11.21602   18.32816
       H   -16.51632    6.32000    9.25756
       O   -16.62270    6.66544   10.14451
      H1   -17.60337    6.63127   10.38903
       H   -16.96052    5.88079   18.35990
       O   -16.05142    5.72696   18.19709
      H1   -15.56941    6.38822   18.71462
       H   -10.74008    6.66317   12.92568
       O   -11.45094    6.59589   13.63927
      H1   -11.63263    7.45306   14.03509
       H   -13.37202    3.56533   12.79918
       O   -12.93242    2.88202   12.33256
      H1   -12.25074    2.41710   12.82788
       H   -14.64752   12.13963   16.33673
       O   -14.24254   12.73627   15.73681
      H1   -14.29079   13.68590   15.96823
       H   -15.54812    3.94688   10.23893
       O   -14.93516    4.04571    9.46600
      H1   -14.57644    3.16429    9.43099
       H   -14.16999    4.85104   14.63164
       O   -13.90431    5.05114   13.69692
      H1   -13.06573    5.45164   13.68143
       H   -15.50280    8.28155   10.11985
       O   -14.70669    8.81483    9.96084
      H1   -14.63401    9.42259   10.73165
       H   -19.39635    5.89876   15.48016
       O   -18.82734    5.24254   15.92003
      H1   -18.56137    4.53759   15.37497
       H   -18.00052    2.50051   14.31279
       O   -17.81441    3.41041   14.06474
      H1   -17.15175    3.34064   13.40996
       H   -16.69153    6.86659   16.21778
       O   -16.26384    7.45497   15.57583
      H1   -16.16442    6.95554   14.76038
       H   -13.39490   10.80681   18.83795
       O   -14.13506   10.51848   19.32442
      H1   -14.08338    9.56217   19.28670
       H   -15.43504   10.67991   14.53826
       O   -14.96044    9.87008   14.50689
      H1   -15.49480    9.23024   14.95812
       H   -12.47765    9.64119   14.50343
       O   -11.90354    9.15628   15.11134
      H1   -12.56770    8.86436   15.79111
       H   -17.58565    8.84343   15.21653
       O   -17.72178    9.81582   15.05966
      H1   -18.29958   10.13900   15.78739
       H   -14.27988   10.25438   12.70897
       O   -13.98696   10.65352   11.85164
      H1   -14.62873   11.30600   11.50647
       H   -14.27276    6.94084   16.05291
       O   -13.50192    6.94410   16.61820
      H1   -13.16893    6.02379   16.57598
       H   -15.99982    6.64937   11.87297
       O   -15.87472    6.89996   12.79809
      H1   -15.21887    6.23371   13.12624
       H   -15.05372    4.12879   18.55277
       O   -14.24163    3.48588   18.57486
      H1   -13.61995    3.93098   17.96312
       H   -19.92321    8.38184   13.96030
       O   -19.55778    9.01120   13.34838
      H1   -18.79360    9.35963   13.86258
       H   -19.93180    6.22211   11.09564
       O   -19.23795    6.87488   11.13571
      H1   -19.36414    7.29873   12.07110
       H   -17.82386   10.69854   17.52006
       O   -18.74032   10.46671   17.35271
      H1   -19.15941   11.33347   17.31411
       H   -13.86237    7.49897   18.28561
       O   -14.26735    7.62620   19.16956
      H1   -13.70682    7.21914   19.78121
       H   -15.82003    4.80180   16.47907
       O   -15.56045    4.23647   15.74590
      H1   -16.32208    3.98702   15.18589
       H   -11.80045    3.78115   16.56164
       O   -12.17737    4.52927   17.07479
      H1   -11.87544    4.36927   17.95214
       H   -15.86195    2.65883   16.57968
       O   -16.42966    1.86753   16.74335
      H1   -15.71297    1.24845   16.93110
       H   -19.87777    4.66946   19.28434
       O   -19.34199    4.09881   18.69100
      H1   -19.35374    4.53405   17.83597

