84
frame 0 | Written by MDAnalysis XYZWriter (release 2.4.3)
       H   -16.72676   12.44075   17.73375
       O   -16.57348   11.49983   17.57084
      H1   -16.17452   11.15121   18.39067
       H    -9.98113    5.34535   12.97821
       O   -10.62471    5.48232   13.64095
      H1   -10.50028    6.44194   13.79760
       H    -6.70709   11.79192   14.44923
       O    -7.02731   12.02691   15.32440
      H1    -7.92115   11.64999   15.23399
       H   -11.37075    7.36927   18.62871
       O   -10.78641    7.90552   19.17563
      H1   -10.25976    7.32225   19.73503
       H   -12.02624    8.51108   13.51351
       O   -12.54992    8.55008   12.71025
      H1   -12.92139    7.65221   12.54179
       H   -13.09998    2.87469   18.04704
       O   -12.38588    2.51419   18.59167
      H1   -12.13958    3.15131   19.26480
       H   -14.63057   11.53299   16.64535
       O   -13.76220   11.31063   16.25252
      H1   -13.87227   11.24914   15.27044
       H   -13.51750    5.75139   13.94538
       O   -13.08107    5.73293   13.04106
      H1   -12.11006    5.61495   13.26169
       H   -15.17255    2.51265   16.53995
       O   -14.39786    3.05678   16.82475
      H1   -13.86045    3.20759   16.07651
       H   -10.70498   11.46904   17.28982
       O   -11.05020   12.29049   16.84688
      H1   -11.95004   12.01478   16.55934
       H   -13.70755    9.58896   16.25365
       O   -13.90358    8.70057   15.99694
      H1   -14.71243    8.81711   15.50946
       H    -7.80197    3.10389   15.57300
       O    -7.30477    3.73973   16.03675
      H1    -6.96719    4.34130   15.44738
       H   -12.95148    5.77143   16.95808
       O   -12.15195    6.21966   17.29731
      H1   -11.35171    5.71190   17.00454
       H   -11.48838   13.36638   18.15797
       O   -11.76942   13.79872   18.98397
      H1   -11.08500   14.44925   19.20539
       H    -8.79184    8.70441   16.91359
       O    -8.44548    7.88191   16.52103
      H1    -9.17531    7.28877   16.30788
       H    -6.90413    7.96685   15.61735
       O    -6.23674    8.07448   14.94940
      H1    -5.46857    7.57372   15.32338
       H    -9.17310   10.67818   13.84449
       O    -9.29737   10.28388   14.72869
      H1    -8.60092    9.63248   14.88707
       H    -7.30032    8.09653   18.61452
       O    -6.83264    7.55719   19.25379
      H1    -7.08922    6.64834   19.09105
       H   -15.26793    4.84289   17.76464
       O   -15.42617    5.31725   18.51204
      H1   -14.79441    4.96566   19.13401
       H   -11.28756    7.97334   15.69588
       O   -10.85795    8.21343   14.87867
      H1   -10.37038    9.08845   15.04257
       H    -6.87626    2.08945   19.48131
       O    -7.83184    2.32739   19.50822
      H1    -8.15652    2.06890   18.62668
       H   -15.02673    8.79122   17.85093
       O   -15.62690    8.17194   18.31735
      H1   -15.16455    7.34361   18.39458
       H   -14.15014    6.85961   15.51560
       O   -14.13827    5.89672   15.49205
      H1   -15.01208    5.65234   15.80839
       H    -8.76112    4.68059   16.44780
       O    -9.59947    5.20127   16.38916
      H1    -9.96762    4.96799   15.50055
       H    -6.99598    4.14843   19.49384
       O    -6.45399    4.68251   18.95055
      H1    -6.76643    4.32548   18.07812
       H    -5.76012   10.49311   18.24170
       O    -5.15038   10.82994   17.49014
      H1    -5.69527   11.40237   16.96329
       H    -9.64567    9.05633   18.75406
       O    -9.24652    9.81737   18.26138
      H1    -8.59710   10.15981   18.91161
       H   -11.48048    1.72337   17.18681
       O   -11.15655    1.22315   16.41243
      H1   -11.77269    0.50252   16.37337

