84
frame 5 | Written by MDAnalysis XYZWriter (release 2.4.3)
       H     8.84468   -1.81453   -1.17349
       O     8.45186   -2.24622   -1.93012
      H1     9.05374   -3.03673   -2.01507
       H     4.29245   -7.65118    3.83452
       O     4.69807   -6.93563    3.33410
      H1     4.06488   -6.91305    2.59490
       H     9.45920   -8.85043    7.07079
       O     8.88076   -8.37658    6.51712
      H1     9.23702   -8.12737    5.63797
       H    12.30610   -5.71115    3.30452
       O    13.04621   -5.66613    3.94789
      H1    13.78327   -6.10821    3.59959
       H     6.72574   -2.47790    1.00411
       O     6.82376   -3.10244    0.30066
      H1     7.22884   -2.65459   -0.46478
       H     6.44371  -10.14634   -0.52186
       O     7.29854  -10.36581   -0.99523
      H1     7.45805   -9.56273   -1.53648
       H     5.88368   -5.72398    2.84022
       O     6.64227   -5.19693    2.59396
      H1     6.39394   -4.77111    1.77890
       H     9.92310   -3.77453    5.67129
       O    10.61083   -3.32101    5.14495
      H1    10.80410   -3.87712    4.35724
       H     5.48265   -8.70333    2.82825
       O     5.86856   -9.55761    2.57119
      H1     6.81123   -9.45927    2.56840
       H     8.70939   -8.34051    1.28949
       O     8.52920   -9.26071    1.44504
      H1     8.28377   -9.59052    0.57912
       H    12.20059   -4.26836   -0.31506
       O    12.14527   -4.97740    0.36318
      H1    12.85087   -5.57079    0.19915
       H    11.01892   -7.33300    4.28330
       O    10.03406   -7.40824    4.21885
      H1     9.94301   -7.09911    3.30947
       H    11.81422   -1.64668    2.03013
       O    11.16394   -2.02434    1.46457
      H1    11.03711   -2.94314    1.73319
       H     9.63452  -10.17629    2.65412
       O     9.95463  -10.93125    3.09971
      H1    10.81160  -10.71923    3.47593
       H    11.06022   -7.25673   -0.30317
       O    10.16562   -7.17006   -0.60620
      H1     9.92764   -7.75029   -1.35559
       H    11.29453   -4.69390    1.81793
       O    10.75345   -4.50916    2.64074
      H1    10.03054   -5.05503    2.41508
       H     7.77844   -5.14732    4.04197
       O     8.26106   -5.15065    4.81260
      H1     8.97651   -5.83281    4.81306
       H    11.83224   -6.88117    6.71081
       O    12.61509   -7.10967    6.14414
      H1    12.60819   -6.54189    5.39533
       H     5.11719   -5.14685   -2.97911
       O     5.83955   -4.55752   -2.74075
      H1     6.20809   -4.98637   -1.99845
       H     9.78479   -5.35516   -1.37882
       O     9.74904   -4.66642   -2.04394
      H1    10.52280   -4.85302   -2.63269
       H     3.92498   -8.00898    0.40743
       O     3.43807   -7.27323    0.77216
      H1     3.36346   -6.49876    0.26575
       H    13.04978   -7.38637    1.07651
       O    12.25503   -7.90773    1.13178
      H1    12.42979   -8.77852    0.88244
       H     3.94123   -4.01262   -0.91457
       O     4.32103   -4.39463   -0.15299
      H1     5.08880   -3.83416   -0.03201
       H     9.09665   -6.60712    0.81320
       O     8.98161   -6.58818    1.75706
      H1     8.07995   -6.32950    2.00894
       H     8.06248   -3.65875    7.51487
       O     7.87687   -3.18389    6.65453
      H1     7.80914   -3.85837    5.93807
       H     7.69121   -7.24739   -1.75983
       O     7.14447   -6.56401   -1.39288
      H1     6.52700   -6.91556   -0.72342
       H     9.10474   -9.35349   -2.11829
       O     8.76524   -8.46253   -2.50026
      H1     9.23581   -8.31591   -3.32347
       H     5.09196   -9.87053    1.08341
       O     4.74998   -9.78669    0.19903
      H1     4.45052  -10.69639   -0.07508

