84
frame 4 | Written by MDAnalysis XYZWriter (release 2.4.3)
       H   -10.91928    7.34508   -4.29154
       O    -9.98228    7.40696   -4.60589
      H1    -9.56221    7.70663   -3.82743
       H    -6.70195    6.58784   -8.41444
       O    -7.03016    6.88203   -7.55761
      H1    -8.00519    6.93778   -7.66550
       H    -5.73951    9.60819   -7.36665
       O    -6.33297    9.34480   -6.65550
      H1    -6.58464    8.45464   -6.97665
       H    -0.54803    7.79102   -3.79173
       O    -0.18401    7.46801   -4.61595
      H1    -0.37010    8.07722   -5.34451
       H    -3.50446    9.38083   -0.58701
       O    -4.28194    8.96833   -0.20133
      H1    -4.84494    8.88765   -0.99943
       H    -4.23338    7.23852   -5.95146
       O    -3.91825    8.13464   -6.16382
      H1    -4.70472    8.62064   -6.40743
       H    -4.01087    9.14488   -4.61643
       O    -4.16248    9.88284   -3.97902
      H1    -4.91617    9.50302   -3.55042
       H    -7.88067   12.03419   -4.97254
       O    -7.61201   12.96201   -4.90235
      H1    -7.64108   13.34530   -5.76781
       H    -5.02718    5.72490   -3.59577
       O    -5.03022    5.86393   -2.64226
      H1    -4.18647    5.68545   -2.31911
       H    -3.66259    7.49977    1.22951
       O    -3.79895    6.58321    1.47140
      H1    -3.25761    6.40275    2.27542
       H    -8.01825    8.46888    0.60134
       O    -8.42475    7.61730    0.65469
      H1    -7.70168    6.94056    0.58320
       H    -3.82084    9.74904   -9.13797
       O    -4.60215   10.24503   -8.80459
      H1    -4.23486   11.12871   -8.58590
       H    -4.25639    9.98538    1.37903
       O    -3.89012   10.53376    2.07243
      H1    -4.52038   11.16337    2.37407
       H    -0.42448   12.22201   -4.97319
       O    -0.06372   12.43750   -5.85630
      H1    -0.76427   12.32287   -6.54562
       H    -2.76526   11.06038   -1.35952
       O    -2.54048   10.33323   -1.88545
      H1    -3.30824   10.19296   -2.54051
       H    -5.16707   11.40951   -3.74521
       O    -5.71707   11.95328   -3.20434
      H1    -6.30683   12.44038   -3.78866
       H    -5.29175    5.09268   -5.85323
       O    -4.66567    5.57493   -5.34084
      H1    -3.88745    4.95012   -5.24668
       H    -6.89371   12.37557   -0.68918
       O    -7.12760   11.44873   -0.78686
      H1    -6.81287   11.34868   -1.65601
       H    -1.65172    9.71325   -7.05073
       O    -1.43196    9.36730   -6.15268
      H1    -2.15468    8.71938   -5.89529
       H    -3.39033   12.26682    0.65542
       O    -3.04231   12.61632   -0.18963
      H1    -2.17863   12.99505    0.08002
       H    -5.28744   13.23143   -1.33822
       O    -5.55858   14.04041   -0.94012
      H1    -5.00714   14.19971   -0.17181
       H    -6.70670    4.93351   -2.34317
       O    -7.58793    4.95442   -2.75336
      H1    -7.61271    4.09647   -3.23139
       H     0.12781   11.72159   -2.49578
       O    -0.47454   11.67977   -3.28266
      H1    -1.27824   11.36894   -2.83249
       H    -4.26756   13.99777   -3.89368
       O    -3.64340   14.56768   -4.29717
      H1    -3.26171   15.05364   -3.54114
       H    -6.85657    8.32968   -2.23053
       O    -5.94007    8.50245   -2.41856
      H1    -5.66201    7.64037   -2.81308
       H    -8.47641    6.81089   -2.40365
       O    -8.57687    7.76579   -2.33157
      H1    -9.16133    7.93750   -1.52891
       H     0.41450    8.70846   -1.98756
       O    -0.46271    8.33538   -2.13763
      H1    -1.20746    8.95446   -2.13307
       H    -8.09599    9.45717   -3.89428
       O    -8.32690   10.14409   -4.52272
      H1    -7.82616    9.90082   -5.36492

