84
frame 4 | Written by MDAnalysis XYZWriter (release 2.4.3)
       H    14.31854    2.19319  -16.97334
       O    14.86257    2.79345  -17.49985
      H1    14.65076    2.73513  -18.42673
       H    15.65428   -1.40435  -17.06798
       O    15.43397   -0.55844  -16.69928
      H1    15.91715   -0.47824  -15.88828
       H    10.30287   -8.62408  -16.09478
       O    10.36159   -8.88181  -17.00744
      H1    10.26423   -8.01640  -17.45774
       H    15.98467   -5.90390  -19.78444
       O    16.93572   -5.92652  -19.40789
      H1    16.85203   -6.03311  -18.46742
       H    12.74223    0.54190  -17.26253
       O    13.21400    0.77290  -16.39874
      H1    14.03787    0.26281  -16.52684
       H     6.11743    0.65753  -19.33787
       O     5.19110    0.67939  -19.03721
      H1     4.67945    1.07155  -19.77431
       H    11.06021   -2.36590  -19.90485
       O    10.85117   -2.57401  -18.97835
      H1    11.45802   -3.27132  -18.68633
       H     8.13678   -0.82778  -19.17418
       O     7.93163   -0.86182  -18.22795
      H1     8.47561   -1.60980  -17.92350
       H    14.68073   -5.01301  -15.39706
       O    14.52040   -5.05383  -16.31984
      H1    13.54408   -4.96618  -16.30288
       H     5.16891   -5.12196  -17.86791
       O     5.90408   -5.72508  -17.83917
      H1     6.76713   -5.24920  -17.75207
       H    11.93708   -4.69750  -14.45678
       O    11.97573   -5.32669  -15.21005
      H1    11.43055   -6.04901  -14.90999
       H    11.53263   -3.74804  -11.67408
       O    11.89068   -3.56682  -12.50936
      H1    11.36721   -2.78194  -12.75995
       H    16.17466   -3.30707  -18.50535
       O    15.46876   -2.86503  -17.97968
      H1    15.02287   -3.62532  -17.52477
       H    13.84504   -2.35491  -14.82197
       O    13.19418   -2.23145  -15.49762
      H1    13.08408   -1.30356  -15.72610
       H    10.43140   -0.79656  -13.87836
       O    10.66079   -1.67622  -14.15950
      H1    11.59652   -1.59801  -14.53761
       H    17.80030   -4.49369  -19.43637
       O    17.95820   -3.57674  -19.14263
      H1    18.69311   -3.62467  -18.50909
       H     8.50413    2.14172  -19.16095
       O     8.59807    2.86336  -19.83560
      H1     8.54574    3.67929  -19.32384
       H     5.59478    0.74686  -16.73041
       O     5.99306    0.10498  -16.15094
      H1     6.70922   -0.29643  -16.68184
       H    17.55279   -0.21760  -18.46643
       O    17.75923   -0.53522  -19.34025
      H1    17.79774   -1.52805  -19.24634
       H    12.02302    2.23884  -16.30328
       O    11.94391    3.12703  -15.86891
      H1    10.95452    3.24275  -15.99435
       H    12.74245    0.03260  -19.29634
       O    11.95688    0.14757  -18.73814
      H1    11.40190   -0.63777  -18.77321
       H     9.46013   -2.28144  -15.40690
       O     8.68421   -2.65526  -15.92782
      H1     8.20039   -3.32643  -15.49806
       H     9.27829   -6.04108  -18.77375
       O    10.04716   -6.64737  -18.94558
      H1     9.95558   -6.86069  -19.86815
       H    16.32074   -7.41137  -16.07601
       O    15.62329   -7.75835  -16.63840
      H1    14.97085   -7.06866  -16.57051
       H    12.15661    1.97652  -14.60882
       O    12.13853    1.38813  -13.81343
      H1    11.75622    1.98417  -13.18035
       H    11.24494   -5.35089  -18.26712
       O    12.09447   -4.86845  -18.13166
      H1    11.96874   -4.78759  -17.15596
       H     8.27843   -3.74006  -17.40322
       O     8.13702   -4.45039  -18.05878
      H1     8.30208   -4.10496  -18.94872
       H     4.43608   -2.43026  -18.39150
       O     4.27828   -1.91796  -19.20539
      H1     4.57430   -1.00300  -19.07640

