84
frame 4 | Written by MDAnalysis XYZWriter (release 2.4.3)
       H    -7.20561    8.84373  -17.67394
       O    -8.08761    9.28956  -17.50475
      H1    -8.40101    8.79105  -16.77535
       H    -6.98305    5.30697  -18.28006
       O    -6.27014    5.51484  -17.65221
      H1    -5.54711    5.52414  -18.25275
       H    -5.64779   10.94858  -12.25691
       O    -5.96901   11.82565  -12.26990
      H1    -6.68228   11.80635  -11.59894
       H    -3.82754   14.15542  -11.58980
       O    -4.31922   13.58568  -10.98438
      H1    -4.70768   12.90886  -11.52831
       H    -1.34879    6.25141  -13.27907
       O    -1.20826    5.24364  -13.30457
      H1    -1.46972    4.96406  -12.41595
       H    -3.40871    7.90627  -10.73992
       O    -3.96813    7.12030  -10.81681
      H1    -4.30224    7.18701  -11.73718
       H    -6.60663   11.83475  -16.87377
       O    -6.55684   11.30594  -16.07767
      H1    -7.17105   10.55427  -16.29175
       H    -6.06179    7.35460  -17.88114
       O    -5.68068    8.16900  -18.26286
      H1    -5.10382    8.58500  -17.59636
       H    -6.21417    6.03578  -15.50967
       O    -5.90813    5.71895  -14.63583
      H1    -5.08752    5.24464  -14.72395
       H    -2.70758    6.22720  -17.68031
       O    -2.75753    6.63234  -16.77824
      H1    -3.10162    7.52297  -16.75918
       H    -1.84160    9.75971  -14.94545
       O    -1.70148   10.56437  -14.50049
      H1    -2.62371   10.83459  -14.31122
       H    -3.82084    9.74904   -9.13797
       O    -4.60215   10.24503   -8.80459
      H1    -4.23486   11.12871   -8.58590
       H    -8.00496    9.08201  -12.22028
       O    -8.16510    9.45365  -13.14565
      H1    -9.10911    9.44988  -13.11028
       H    -4.73075    9.28965  -14.25358
       O    -4.52509   10.22713  -14.32215
      H1    -5.25475   10.65164  -14.81560
       H    -1.05272   11.32259  -10.43756
       O    -1.12444   11.06018  -11.37341
      H1    -1.50261   11.95484  -11.59196
       H    -1.42049    7.58541  -16.04173
       O    -0.90974    8.32567  -15.75178
      H1    -0.50094    8.11329  -14.89622
       H    -1.72601    8.94623   -9.55482
       O    -2.53367    9.20956   -9.98447
      H1    -2.25115    9.87858  -10.64082
       H    -2.95621    5.37123  -15.49107
       O    -3.26630    4.61448  -14.98506
      H1    -2.80885    4.65746  -14.11752
       H    -3.45123   14.27399  -16.52297
       O    -2.87473   13.51369  -16.68010
      H1    -3.39173   12.82178  -17.04766
       H    -6.99867   13.65610  -13.06287
       O    -7.06267   14.47399  -13.60867
      H1    -6.40618   15.11535  -13.20005
       H    -8.65004    8.26328  -14.28628
       O    -8.66749    7.76664  -15.15364
      H1    -9.56894    7.29320  -15.13136
       H    -5.88942    5.73070  -10.85117
       O    -6.24991    5.43714  -10.00059
      H1    -5.88563    4.62641   -9.68722
       H     0.57231   12.68419  -15.35973
       O    -0.30307   12.98101  -15.11434
      H1    -0.86570   12.22099  -15.39179
       H    -7.34577    6.73435  -10.79580
       O    -7.76866    7.51600  -11.07565
      H1    -8.05107    7.89560  -10.16547
       H    -3.41881    7.34612  -13.46464
       O    -4.35665    7.48926  -13.42391
      H1    -4.99483    6.89232  -13.86604
       H    -1.06417    8.70812  -12.61960
       O    -1.11952    7.77818  -12.90320
      H1    -0.23505    7.52502  -12.80178
       H    -7.92915   11.79409  -14.75472
       O    -8.77668   11.81164  -14.35528
      H1    -8.63006   11.31018  -13.53222
       H    -3.40783    9.92476  -17.45933
       O    -3.75929    9.32676  -16.74832
      H1    -4.09517    9.89383  -16.03769

