84
frame 5 | Written by MDAnalysis XYZWriter (release 2.4.3)
       H    -6.46791    4.37914   11.03887
       O    -5.97868    4.85739   11.78088
      H1    -5.48213    4.16175   12.18589
       H    -6.33095   12.76859   15.44037
       O    -6.92700   12.68583   16.18605
      H1    -7.18391   13.56089   16.44377
       H    -8.81639   11.13111   14.50048
       O    -9.38418   11.61841   15.11094
      H1    -8.73465   12.21296   15.54893
       H    -4.03509    3.83720   16.81017
       O    -3.32297    4.06801   17.44900
      H1    -2.87007    4.82667   16.95414
       H    -7.36484    9.40621   10.34021
       O    -7.30356   10.19904   10.83409
      H1    -7.34441    9.92551   11.73022
       H    -3.99282   13.46551   18.84139
       O    -3.37345   12.76991   18.47626
      H1    -3.41430   11.93734   18.88887
       H    -7.53404    8.87541   18.94258
       O    -8.05266    9.66787   19.11435
      H1    -8.12878    9.68702   20.11169
       H    -4.42044   12.03310   14.08970
       O    -5.26135   12.25641   13.65945
      H1    -5.15662   12.33057   12.69980
       H    -1.28887   10.96190   12.37748
       O    -1.60792   10.07875   12.52766
      H1    -1.35976    9.76518   13.39654
       H    -9.32181    7.99965   16.30158
       O    -9.12425    7.13198   15.93619
      H1    -9.81983    6.88175   15.30911
       H    -7.66736    7.63220   15.16345
       O    -6.88949    7.78733   14.59526
      H1    -6.01964    7.64647   15.13942
       H    -0.32833   12.86775   18.17639
       O    -0.88110   12.31821   17.56616
      H1    -1.72127   12.39283   18.01472
       H    -9.15357   10.31527   16.24610
       O    -9.32248    9.61024   16.90853
      H1    -8.71429    9.78193   17.67750
       H    -7.66984    5.02094   18.87667
       O    -8.04957    4.46177   19.60163
      H1    -7.86713    3.54577   19.26593
       H    -7.81602    7.01662   17.34853
       O    -7.21185    6.95982   18.08292
      H1    -6.32739    6.96285   17.60322
       H    -0.46268    6.24993   19.53589
       O    -0.29869    6.21101   18.58699
      H1     0.49291    6.80884   18.49629
       H    -1.62077    5.54764   15.46456
       O    -2.04191    5.95600   16.22824
      H1    -1.31474    6.11478   16.88526
       H    -6.83633    9.41356   14.05925
       O    -7.21142   10.24514   13.70172
      H1    -6.50641   10.91685   13.66787
       H    -2.18617   10.19803   15.13970
       O    -1.99588    9.24852   15.06293
      H1    -1.34206    9.02726   15.78737
       H    -7.46001    6.08066   14.15922
       O    -7.78772    5.27373   13.76262
      H1    -7.15006    5.10395   13.04474
       H    -1.41284   10.17257   19.65001
       O    -2.33872   10.27259   19.57161
      H1    -2.73607    9.41193   19.37854
       H    -2.22077   12.71412   15.51616
       O    -2.83598   12.03051   15.31648
      H1    -3.44413   12.04696   16.06418
       H     0.78063    9.51795   16.66823
       O    -0.02676    9.43747   17.25214
      H1    -0.32794   10.34344   17.42873
       H    -0.02722    7.08277   13.16744
       O    -0.55303    7.25712   12.35480
      H1    -0.89202    8.15018   12.35404
       H    -6.92576    2.39630   17.59266
       O    -6.30379    2.73130   16.91717
      H1    -6.75878    2.48795   16.06229
       H    -5.06142   10.30408   18.09544
       O    -5.60519   10.33002   17.28013
      H1    -6.05127   11.20777   17.19966
       H    -4.88886    8.80837   16.40285
       O    -4.48242    7.95022   16.26046
      H1    -3.55949    8.02450   15.87803
       H    -3.90206    7.89667   17.77651
       O    -3.52394    7.72778   18.65374
      H1    -4.32455    7.71879   19.18945

