84
frame 5 | Written by MDAnalysis XYZWriter (release 2.4.3)
       H    16.74749  -18.36373  -12.44636
       O    17.56752  -18.24779  -12.89334
      H1    17.68586  -17.37152  -13.31658
       H    15.83891  -18.99570  -18.46351
       O    15.16886  -19.18137  -19.18344
      H1    15.36970  -18.51841  -19.86464
       H     9.32237  -15.03450  -17.01502
       O    10.23509  -14.78941  -16.87732
      H1    10.69566  -14.93013  -17.78188
       H    12.30264  -18.09963  -16.69792
       O    12.53253  -18.33457  -15.77454
      H1    11.81344  -17.81985  -15.28335
       H    16.94219  -14.11451  -15.84447
       O    16.02321  -14.36480  -15.63168
      H1    16.14234  -15.01910  -14.91293
       H    13.95068  -16.78746  -14.85092
       O    14.73277  -16.95201  -14.35358
      H1    14.55999  -17.87548  -14.01532
       H    17.86666  -11.56144  -14.80880
       O    18.44010  -12.03820  -14.15250
      H1    18.74610  -12.84727  -14.56306
       H    19.01773  -15.83198  -14.47234
       O    18.19647  -15.78012  -13.99077
      H1    18.08379  -14.88604  -13.65436
       H    14.10316  -13.11137  -12.05434
       O    14.53188  -12.94476  -11.23978
      H1    15.47693  -12.93007  -11.41888
       H    14.97553  -13.19625  -18.71567
       O    15.58384  -13.91088  -18.99100
      H1    15.34213  -14.66544  -18.44575
       H    12.30861  -13.02197  -17.50337
       O    13.08451  -12.43473  -17.74724
      H1    12.65644  -11.55248  -17.94666
       H    13.22309  -19.26887  -10.66808
       O    13.56144  -19.24072  -11.56871
      H1    12.82921  -19.41762  -12.19940
       H    11.96135  -14.12162  -19.58762
       O    11.88845  -14.85035  -18.96105
      H1    12.68718  -14.73127  -18.40992
       H    10.74380  -15.69250  -10.23873
       O     9.82515  -15.41824  -10.12476
      H1     9.39912  -16.21452   -9.75746
       H    12.83879  -17.22171  -19.23710
       O    12.63850  -18.00162  -18.65867
      H1    13.34090  -18.69188  -18.92756
       H    14.06878  -14.22591   -7.78748
       O    13.35873  -14.47656   -8.54034
      H1    13.68271  -14.23158   -9.40200
       H    18.32271  -17.45365  -17.32292
       O    17.79759  -18.24680  -17.50108
      H1    17.63998  -18.59580  -16.58943
       H    12.92881  -12.06501  -14.71619
       O    13.52102  -12.72966  -14.27613
      H1    14.26168  -12.84851  -14.89113
       H    15.99774  -16.15497  -10.15060
       O    16.54000  -15.68332   -9.54588
      H1    16.14643  -14.88042   -9.24371
       H    10.91584  -15.92549  -14.12960
       O    10.66071  -16.57520  -14.78931
      H1    10.56415  -15.95115  -15.47670
       H    19.46178  -15.12152  -17.15467
       O    18.78846  -15.52569  -17.71383
      H1    18.97610  -15.02263  -18.47856
       H    12.01834  -14.79126  -12.23917
       O    12.24642  -14.98571  -13.15410
      H1    12.49416  -14.13092  -13.57750
       H    17.85015  -12.95663  -11.16846
       O    17.23787  -12.61243  -11.85437
      H1    17.74258  -12.44596  -12.67413
       H    14.80931  -16.28491  -12.25037
       O    14.86998  -16.87026  -11.46254
      H1    14.41516  -17.72720  -11.65815
       H    14.72185  -15.55563  -16.63043
       O    14.41589  -15.94815  -17.43933
      H1    13.91366  -16.76022  -17.30616
       H     8.98208  -16.34587  -14.13063
       O     8.09815  -16.01820  -14.01100
      H1     7.66565  -16.52635  -13.26345
       H    18.84370  -18.49244  -11.68174
       O    19.42383  -18.50904  -10.85413
      H1    18.75203  -18.70539  -10.15376
       H    12.76535  -16.08697   -9.73413
       O    12.36469  -16.24869  -10.60024
      H1    13.12876  -16.31547  -11.15551

