84
frame 5 | Written by MDAnalysis XYZWriter (release 2.4.3)
       H   -13.20502  -11.62531    9.35046
       O   -13.41899  -12.23830    8.60859
      H1   -13.63936  -11.74450    7.81391
       H   -10.53311  -18.92528    5.44807
       O    -9.70074  -18.82650    5.04251
      H1    -9.25936  -19.67216    5.11819
       H   -17.56892  -15.87093    5.14724
       O   -18.19079  -15.18872    4.85630
      H1   -19.02197  -15.61485    5.07356
       H   -16.64205  -14.78517    3.01988
       O   -16.26426  -13.97353    2.55236
      H1   -16.12294  -13.35585    3.31093
       H    -9.06204  -13.91142    4.13396
       O    -8.98940  -13.14828    3.56219
      H1    -8.78191  -13.44537    2.64481
       H   -10.65863  -14.85166    8.39129
       O    -9.79133  -15.27348    8.73215
      H1   -10.14123  -16.18096    8.90215
       H   -16.67535  -18.30254    0.76385
       O   -16.09049  -17.66907    1.12308
      H1   -15.77334  -17.81528    1.99265
       H   -15.58740  -17.16556    4.29544
       O   -15.09119  -17.32116    3.48537
      H1   -14.85884  -18.28182    3.40898
       H   -14.91288  -13.67666    9.24379
       O   -15.75343  -14.17659    9.29477
      H1   -15.83495  -14.55105   10.22599
       H   -18.32310  -13.55040    5.92971
       O   -18.42895  -12.69415    6.25529
      H1   -17.92007  -12.63591    7.11225
       H   -11.22425  -11.58190    5.22124
       O   -11.25765  -11.90423    4.30704
      H1   -10.44691  -12.42381    4.17274
       H   -15.09308  -13.07354    1.35428
       O   -14.56252  -12.54449    0.75284
      H1   -14.12188  -11.92463    1.27141
       H   -12.07286  -15.67694    2.02771
       O   -11.76015  -15.99952    1.16156
      H1   -11.86843  -15.18449    0.59689
       H    -9.46160  -16.22173    4.23598
       O    -9.44307  -15.54658    4.95762
      H1   -10.44608  -15.62991    5.22094
       H   -10.83461  -11.52553    7.00296
       O   -11.10556  -10.62249    6.69956
      H1   -10.34123  -10.17800    6.33850
       H   -13.11667  -18.04681    7.33648
       O   -13.39308  -17.53223    8.05663
      H1   -14.05336  -18.02573    8.56250
       H   -13.54788   -9.81930    2.66140
       O   -13.48821  -10.80821    2.63782
      H1   -12.74890  -10.90874    3.27452
       H   -10.39996  -14.57104   10.29846
       O   -10.87703  -13.98466   10.89132
      H1   -10.86737  -14.43009   11.73657
       H   -15.11275  -12.03747    5.50302
       O   -15.64711  -12.74166    5.05729
      H1   -16.27867  -12.99823    5.77427
       H   -17.23289  -13.33381    9.17994
       O   -17.96426  -12.68522    9.08701
      H1   -17.71385  -11.96068    9.71859
       H   -16.15594  -18.96076    9.32353
       O   -15.28146  -18.80178    9.75622
      H1   -14.93453  -19.70269    9.95923
       H   -14.51736  -16.20962    7.64213
       O   -15.26037  -15.68424    7.21122
      H1   -15.57335  -15.09291    7.96597
       H   -16.88310  -18.28894    6.06489
       O   -16.71821  -17.40305    5.77561
      H1   -16.09421  -16.98376    6.40060
       H   -11.77135  -12.96021    7.91317
       O   -11.18852  -13.36834    7.28922
      H1   -11.77097  -13.89178    6.67131
       H   -14.47310   -9.68727    6.51183
       O   -13.87954  -10.45239    6.54379
      H1   -13.03461  -10.10650    6.75030
       H   -13.73665  -13.91824    5.15157
       O   -13.32834  -14.53139    5.75342
      H1   -14.05418  -14.85588    6.26223
       H   -10.66065  -18.05924    9.69632
       O   -11.27328  -17.32347    9.69735
      H1   -11.96970  -17.48453    9.06743
       H   -13.17323  -17.11533    3.71301
       O   -12.37894  -16.65084    3.86671
      H1   -12.72267  -16.07706    4.56483

