84
frame 5 | Written by MDAnalysis XYZWriter (release 2.4.3)
       H     8.78960  -13.04580    0.06606
       O     8.04192  -13.04783   -0.55537
      H1     7.73916  -12.15951   -0.37400
       H    -0.47928  -16.82021    2.33235
       O     0.50976  -16.91164    2.46264
      H1     0.83160  -15.99108    2.66755
       H     9.27263  -14.21706    6.67868
       O     9.06176  -14.61372    5.83784
      H1     8.48262  -13.97693    5.36656
       H     8.90684  -16.86320    0.17532
       O     9.41736  -16.42757    0.85136
      H1     9.05027  -16.73141    1.66525
       H     1.72934  -14.08877    2.24661
       O     2.41367  -14.46667    2.80945
      H1     2.93427  -14.87399    2.15791
       H     6.87825  -14.10201   -2.08738
       O     6.70538  -14.28367   -3.03814
      H1     7.53516  -14.09615   -3.51492
       H     9.15120  -17.41683   -1.77143
       O     8.26458  -17.63676   -1.42759
      H1     7.67981  -17.32497   -2.09283
       H     5.53675  -12.96913   -3.38004
       O     4.70045  -12.56136   -3.43656
      H1     4.00073  -13.19492   -3.56506
       H     8.63479  -12.29779    3.85865
       O     8.02995  -13.04789    4.00822
      H1     7.88120  -13.35733    3.11552
       H     1.73856  -14.86534    0.17861
       O     1.35814  -13.98553    0.18551
      H1     1.94735  -13.42439   -0.37744
       H     5.31150  -16.47579    0.96278
       O     4.82820  -15.93790    1.60104
      H1     5.56647  -15.33166    1.73359
       H     8.25793  -15.01121    1.44059
       O     7.34720  -14.59886    1.43581
      H1     7.26011  -13.90403    0.67800
       H     6.43977  -16.05020   -3.12801
       O     6.29148  -16.96694   -2.91245
      H1     6.00610  -17.40907   -3.69695
       H     5.50327  -18.93399   -0.52475
       O     5.96277  -18.26261    0.03879
      H1     6.57889  -17.84710   -0.56718
       H     4.48610  -17.12887    4.69711
       O     3.59705  -17.44806    4.76773
      H1     3.09279  -16.62880    4.60096
       H    11.98701  -16.78180   -0.54197
       O    12.05996  -16.13515    0.14192
      H1    11.17648  -16.05953    0.59125
       H     3.47208  -16.75023   -1.52865
       O     3.75686  -16.51819   -2.45947
      H1     4.72292  -16.60756   -2.61307
       H    -0.92261  -13.24719   -1.05292
       O    -0.57929  -13.99820   -1.60907
      H1     0.22746  -14.34396   -1.23011
       H     6.43987  -15.96598    4.21813
       O     6.24306  -16.70984    4.75747
      H1     7.01122  -17.27308    4.73140
       H     3.00720  -15.27935   -3.44401
       O     2.92322  -14.55670   -4.06103
      H1     2.16801  -14.08175   -3.79668
       H     9.41636  -19.08745    5.25243
       O     8.58972  -18.50583    5.35747
      H1     8.55951  -18.23387    6.28853
       H     4.03920  -12.55392    5.09353
       O     3.09028  -12.79467    4.91876
      H1     3.02066  -13.03766    3.99077
       H     1.96024  -17.06845    0.91121
       O     2.58358  -16.52957    0.32397
      H1     3.37728  -16.35615    0.86996
       H     0.81639  -18.51313    5.13084
       O     0.54609  -19.05237    4.34771
      H1     1.02128  -18.56746    3.59971
       H     2.30705  -11.22769   -1.13477
       O     2.97135  -11.91493   -1.07046
      H1     3.40138  -12.10741   -1.91550
       H     9.25053  -17.04479    4.31229
       O     9.30851  -16.55408    3.51179
      H1     9.38941  -15.67367    3.87232
       H     6.26306  -16.37222    6.68820
       O     6.36551  -16.77336    7.57507
      H1     5.45176  -17.08285    7.61000
       H     5.09196   -9.87053    1.08341
       O     4.74998   -9.78669    0.19903
      H1     4.45052  -10.69639   -0.07508

