84
frame 6 | Written by MDAnalysis XYZWriter (release 2.4.3)
       H     9.97183    5.42114  -11.80642
       O    10.48682    5.30238  -11.03784
      H1     9.84066    4.92529  -10.38772
       H    14.89778   -0.83889  -16.12570
       O    14.98431   -0.07507  -15.60127
      H1    15.96212    0.13810  -15.38697
       H    13.62897    1.59217  -17.71697
       O    14.04328    2.05890  -16.97044
      H1    14.32479    1.34885  -16.33130
       H    12.68297    5.88243   -7.83283
       O    12.02622    5.40954   -7.20623
      H1    12.50077    5.54629   -6.35088
       H    13.19352   -2.08606  -10.56217
       O    12.81141   -1.27987  -10.25429
      H1    11.96533   -1.22675  -10.76062
       H    12.22622    0.18734   -7.66917
       O    12.19842   -0.73966   -7.66798
      H1    12.27184   -0.92018   -8.62150
       H    12.97862    3.34724  -12.96494
       O    12.78906    3.40708  -12.06403
      H1    11.86530    3.64742  -12.00272
       H    11.71708    6.40751  -15.23318
       O    12.36023    5.96631  -15.71939
      H1    12.36518    5.09051  -15.38020
       H    14.17150    8.04860  -12.93726
       O    13.25027    7.82867  -13.12060
      H1    12.82917    7.79682  -12.29922
       H     8.78782    3.90434  -14.46641
       O     8.24991    4.51287  -13.94727
      H1     8.47369    5.33640  -14.30758
       H     9.83503    2.10015  -16.41558
       O     9.76745    2.55170  -15.52122
      H1     9.40983    1.84767  -14.93184
       H    11.22319   -1.16476  -13.28496
       O    11.40080   -2.05027  -12.95642
      H1    12.31304   -2.19024  -12.92046
       H     8.39635    1.73686  -11.50427
       O     8.88138    2.05385  -12.23614
      H1     8.57035    2.94337  -12.44969
       H    16.48608    3.34734  -14.16821
       O    16.93718    2.74187  -13.63089
      H1    17.21409    1.96643  -14.15891
       H    15.61507   -0.00077  -11.63854
       O    14.76351    0.35590  -11.99439
      H1    14.64140    1.23819  -11.73414
       H    11.61524    6.79086  -10.43229
       O    12.01689    7.65854  -10.56471
      H1    12.75032    7.63206   -9.96789
       H     9.46855    7.76360  -15.10573
       O    10.10646    7.33078  -14.48792
      H1    10.56100    8.02472  -14.01135
       H    16.58354    2.43305  -11.81095
       O    16.58744    2.37605  -10.86684
      H1    16.10007    3.10567  -10.48678
       H    12.76172    2.83469  -15.76823
       O    12.37151    3.23946  -14.92364
      H1    11.47517    3.05621  -15.17368
       H    11.75712    1.90168   -5.79980
       O    11.37010    2.37188   -6.58301
      H1    11.81649    3.22739   -6.75200
       H    14.26149    2.11664   -8.41226
       O    14.93874    2.35350   -7.81931
      H1    15.18834    1.43271   -7.50569
       H    17.23867    0.57413  -11.04419
       O    17.22573   -0.30606  -11.37089
      H1    16.70473   -0.75637  -10.67386
       H    16.21550   -2.40881  -13.71339
       O    15.53534   -2.33895  -12.99765
      H1    15.39132   -1.34133  -12.97864
       H    14.07624    5.59736  -13.57552
       O    14.61567    5.02126  -13.07516
      H1    14.07724    4.45869  -12.50619
       H    11.94396    1.33086  -13.57263
       O    11.22936    0.69044  -13.43111
      H1    10.56776    1.19243  -12.96288
       H    12.83954    2.17150  -10.50504
       O    13.23454    1.48607   -9.93372
      H1    13.47955    0.75640  -10.48269
       H    14.51307    7.36636   -8.57487
       O    13.96373    6.55410   -8.77354
      H1    14.51140    5.95131   -9.26025
       H    17.00774    5.37533  -10.37840
       O    16.03962    5.19916  -10.34769
      H1    15.65549    5.37516  -11.25122

