84
frame 5 | Written by MDAnalysis XYZWriter (release 2.4.3)
       H    -6.46791    4.37914   11.03887
       O    -5.97868    4.85739   11.78088
      H1    -5.48213    4.16175   12.18589
       H   -10.74008    6.66317   12.92568
       O   -11.45094    6.59589   13.63927
      H1   -11.63263    7.45306   14.03509
       H    -8.81639   11.13111   14.50048
       O    -9.38418   11.61841   15.11094
      H1    -8.73465   12.21296   15.54893
       H    -9.07608    9.43397    7.68514
       O    -8.17642    9.41770    7.89754
      H1    -7.96708    8.54299    8.27349
       H   -10.22919    8.07076    9.59077
       O   -10.67234    7.49200    8.93680
      H1   -11.64794    7.61879    9.07853
       H    -5.57128   13.02261    8.65026
       O    -5.36633   13.83656    9.14454
      H1    -6.24102   14.24169    9.32433
       H    -7.36484    9.40621   10.34021
       O    -7.30356   10.19904   10.83409
      H1    -7.34441    9.92551   11.73022
       H   -11.36475   10.15581    7.53942
       O   -10.59218    9.94942    6.94110
      H1   -10.89938   10.01402    6.01411
       H    -3.86408    6.60727    9.95184
       O    -4.05743    6.79591    9.06000
      H1    -4.18325    7.78315    8.99311
       H    -8.92444    5.91719   12.55116
       O    -9.34429    6.49323   11.92204
      H1    -9.94146    5.80737   11.55545
       H    -4.42044   12.03310   14.08970
       O    -5.26135   12.25641   13.65945
      H1    -5.15662   12.33057   12.69980
       H   -10.59358    6.31732    7.43035
       O   -10.64367    5.80970    6.61005
      H1   -11.64605    5.77902    6.47560
       H    -7.59578    5.29117    9.40612
       O    -7.50867    4.33468    9.45921
      H1    -6.87075    4.05344    8.83654
       H    -3.41524   11.08080   10.57529
       O    -2.78200   10.57608   10.08535
      H1    -2.31559   10.17267   10.85531
       H    -7.66792    6.80879    6.44460
       O    -7.34156    7.59957    6.02055
      H1    -7.76354    8.34340    6.53351
       H    -7.66736    7.63220   15.16345
       O    -6.88949    7.78733   14.59526
      H1    -6.01964    7.64647   15.13942
       H    -4.86860    5.84199    7.46968
       O    -5.45763    5.15380    7.19004
      H1    -5.00907    4.76759    6.44018
       H    -4.21304    9.75822    9.06709
       O    -4.86484    9.22335    8.51480
      H1    -4.62870    9.12292    7.56130
       H    -6.83633    9.41356   14.05925
       O    -7.21142   10.24514   13.70172
      H1    -6.50641   10.91685   13.66787
       H    -7.46001    6.08066   14.15922
       O    -7.78772    5.27373   13.76262
      H1    -7.15006    5.10395   13.04474
       H    -7.95725    6.94919   10.61715
       O    -7.50774    7.00909    9.77154
      H1    -6.63971    7.24427   10.00661
       H   -12.45690   10.54663    9.55655
       O   -11.86741   10.54210   10.30921
      H1   -12.36772   10.33869   11.10848
       H    -5.45111   12.58710   10.30292
       O    -5.23759   11.82318   10.78739
      H1    -5.93358   11.15850   10.68379
       H    -7.37948   14.71483   10.67717
       O    -7.54592   15.05341    9.79333
      H1    -8.33870   14.62771    9.53495
       H    -9.80661   12.73660    7.76381
       O    -9.23555   12.54992    7.01081
      H1    -9.42687   11.60274    6.88055
       H    -8.82523   11.66788   10.73648
       O    -9.53207   11.92580   10.14722
      H1   -10.36265   11.61730   10.45852
       H    -5.65865   10.69095    8.02172
       O    -6.08157   11.53071    7.70524
      H1    -7.01344   11.51464    7.79523
       H    -4.89291   13.70963    5.69033
       O    -5.29008   12.84010    5.44815
      H1    -5.53320   12.38316    6.27348

