84
frame 5 | Written by MDAnalysis XYZWriter (release 2.4.3)
       H    16.23001   -1.11227   13.43347
       O    16.43777   -1.70678   14.16416
      H1    16.08638   -1.24002   14.92043
       H    14.00858    5.30506   17.92845
       O    13.32477    5.10982   17.24280
      H1    13.55489    5.84277   16.67376
       H    19.64446    0.52489   10.65751
       O    18.81996    0.57083   11.20155
      H1    18.78013    1.46333   11.54840
       H    18.42267    5.51090    9.27306
       O    18.03769    5.37873   10.17078
      H1    18.19063    4.45892   10.13233
       H    15.84949   -1.58916   18.55807
       O    15.84265   -0.64288   18.69934
      H1    15.00853   -0.40271   19.16063
       H    16.52380    0.84939   15.87205
       O    15.91840    0.15060   16.19827
      H1    16.11095    0.04186   17.15654
       H    18.42080    2.59048   14.03686
       O    18.83946    2.84288   13.16752
      H1    19.75025    3.11363   13.43039
       H    11.18399    3.23437   15.19377
       O    11.40416    2.32492   15.07963
      H1    12.03067    2.30649   14.37882
       H    14.06650    2.44662   12.87629
       O    13.32751    1.89959   13.14411
      H1    12.97484    1.59196   12.30972
       H    16.03122    3.35741   13.38364
       O    15.23721    3.57523   13.90578
      H1    15.10712    2.85886   14.53667
       H    13.48601    0.22326   16.15219
       O    12.71658   -0.32992   15.99546
      H1    12.60823   -0.35479   15.02775
       H    18.81683    2.18292    9.90381
       O    19.21704    2.92035    9.44690
      H1    18.69751    3.04225    8.64987
       H    19.64826    8.47528   18.06692
       O    19.17871    7.65417   18.06236
      H1    18.27452    7.89590   18.27178
       H    14.57532    6.48592   19.58697
       O    15.23371    6.15806   18.91439
      H1    15.62582    6.93895   18.49162
       H    19.80698   -2.37441   18.65976
       O    19.86636   -1.45297   18.45654
      H1    19.14453   -0.99989   18.92198
       H    15.43322   -0.34707   11.38118
       O    16.10918   -0.00903   12.05127
      H1    16.94992   -0.17064   11.59538
       H    18.90429   -4.17299   14.84688
       O    17.96435   -4.00772   15.01096
      H1    17.82459   -3.11331   14.64248
       H    15.32105    2.34593   18.30466
       O    15.91776    2.79391   18.93758
      H1    16.78679    2.37493   18.84583
       H    16.27900    2.45978   10.57096
       O    16.35684    2.57538   11.50650
      H1    16.26184    1.64531   11.85384
       H    19.30278    2.65645   18.54541
       O    18.77563    1.85631   18.31751
      H1    18.86300    1.21156   19.06378
       H    12.82452    6.07872   13.20964
       O    13.49552    5.62435   12.67970
      H1    14.06451    5.12264   13.32709
       H    12.92526    1.85112   16.82736
       O    13.74181    2.19459   17.24337
      H1    13.75538    3.08985   16.93894
       H    19.66549   -0.33075   14.96790
       O    19.20407   -1.13494   14.70572
      H1    18.27492   -0.91625   14.57486
       H    17.99873    7.36055   14.73674
       O    18.85009    7.35573   15.20011
      H1    18.84268    7.63915   16.11322
       H    16.17509    8.67184   14.52761
       O    16.49803    7.93043   14.03247
      H1    16.21947    7.97859   13.10712
       H    15.49762    5.28741   15.63201
       O    16.11660    5.21000   16.35457
      H1    15.69487    5.05949   17.19739
       H    14.63030    7.27016   15.02510
       O    13.70798    7.16177   15.36502
      H1    13.63408    7.85449   16.06639
       H    18.12888    1.87253   16.55193
       O    17.65686    2.22749   15.82851
      H1    17.18303    2.98458   16.16297

