84
frame 6 | Written by MDAnalysis XYZWriter (release 2.4.3)
       H   -18.66407    1.43999   -4.13517
       O   -18.52817    2.35870   -4.26103
      H1   -17.71646    2.53109   -3.76501
       H   -18.21185    0.54103   -8.72243
       O   -17.93390    1.39755   -8.32808
      H1   -17.42460    1.20603   -7.54224
       H   -12.84287    2.40057   -6.70444
       O   -12.33891    1.63992   -6.25647
      H1   -11.61564    1.53441   -6.90356
       H   -17.85259   -2.88230  -12.18687
       O   -17.69136   -2.20719  -12.88908
      H1   -17.35652   -2.62533  -13.68529
       H   -18.32573    0.20847  -14.70292
       O   -18.16660    0.85232  -14.00659
      H1   -17.35699    1.40323  -14.26385
       H   -17.08836   -4.22200   -7.03898
       O   -17.15285   -4.62919   -6.12554
      H1   -17.96587   -4.15518   -5.82246
       H   -16.48179    0.31724  -12.60094
       O   -15.59411    0.70616  -12.64942
      H1   -15.30668    0.46677  -13.51945
       H   -16.95440    4.37379   -9.67725
       O   -16.64688    3.46066   -9.74638
      H1   -17.11239    2.89906   -9.07157
       H   -19.35518   -3.95731  -11.03516
       O   -18.61960   -3.52876  -10.61320
      H1   -18.19063   -4.22198  -10.04660
       H   -14.70571   -0.91952   -9.34681
       O   -14.78583   -1.84975   -9.64334
      H1   -14.81084   -1.87926  -10.62841
       H   -16.17474   -2.27233   -3.51203
       O   -16.01667   -1.39741   -3.83916
      H1   -15.19613   -1.33130   -4.29818
       H   -14.83783    1.89202  -11.39516
       O   -14.37675    2.36188  -10.64057
      H1   -15.02288    2.81483  -10.05589
       H   -15.88850   -5.12545   -9.15760
       O   -16.37202   -4.29266   -9.10440
      H1   -15.72375   -3.59992   -9.23460
       H   -12.56295    1.40901  -10.67244
       O   -11.98666    0.71292  -10.24499
      H1   -11.35933    0.47424  -10.94609
       H   -19.55426   -2.43864   -8.15737
       O   -18.76539   -1.86625   -8.32532
      H1   -18.37830   -2.34369   -9.05142
       H   -19.93087   -4.65581   -4.28337
       O   -19.17833   -4.09775   -4.39199
      H1   -19.43483   -3.19274   -4.69922
       H   -15.98476    4.27707   -4.66645
       O   -15.30282    3.63038   -4.84387
      H1   -14.90913    3.44924   -3.97061
       H   -18.47490   -1.67332   -6.42281
       O   -18.56136   -1.69147   -5.49077
      H1   -17.67968   -1.63006   -5.09955
       H   -15.22503    6.83860   -7.20990
       O   -15.90016    7.34182   -7.71883
      H1   -16.33120    6.75489   -8.33839
       H   -14.49508    3.53615   -6.25161
       O   -13.95209    3.66959   -7.05380
      H1   -13.80780    4.63990   -7.11150
       H   -15.52264    2.09860   -5.79554
       O   -15.90514    1.19785   -5.93194
      H1   -15.51711    0.81386   -6.71596
       H   -17.41461    3.58351  -11.29449
       O   -17.78700    3.73505  -12.22913
      H1   -18.63054    3.18458  -12.32635
       H   -14.38699    1.18221   -9.07314
       O   -14.42834    0.58089   -8.34476
      H1   -13.48183    0.46305   -8.07925
       H   -17.06516    6.35957  -10.98480
       O   -17.24050    6.13876  -10.08311
      H1   -18.16511    5.90495   -9.90585
       H   -15.18247    4.78020  -13.07435
       O   -14.37757    4.22173  -13.13370
      H1   -14.59979    3.57420  -12.47752
       H   -17.82659    6.42845   -5.10873
       O   -17.56602    5.60344   -4.60806
      H1   -18.25932    4.97648   -4.79935
       H   -15.68306    1.37856   -3.96457
       O   -15.77642    1.37871   -2.97997
      H1   -16.08130    0.46758   -2.81019
       H   -19.46050    8.43679   -8.75587
       O   -19.30676    7.48896   -8.61478
      H1   -19.58308    6.98693   -9.43504

