84
frame 6 | Written by MDAnalysis XYZWriter (release 2.4.3)
       H    -7.26195   -9.77052    2.04288
       O    -7.78704  -10.05802    1.26465
      H1    -8.07215   -9.30704    0.80348
       H    -6.04559  -17.47590    6.10392
       O    -5.33354  -17.37136    5.51081
      H1    -5.65411  -17.44229    4.62286
       H    -9.87590  -17.38148    2.12664
       O    -9.24094  -18.04754    2.45615
      H1    -9.59719  -18.27637    3.28722
       H    -8.34190  -12.98522    6.55952
       O    -8.22556  -12.57547    5.68922
      H1    -9.00035  -12.90247    5.16883
       H    -9.97925  -14.38047    4.21352
       O    -9.85256  -13.53768    3.75368
      H1    -9.29863  -13.64039    3.00557
       H    -9.89574  -13.35558   -1.07391
       O    -9.20858  -12.75992   -1.20423
      H1    -9.67428  -11.89810   -1.45663
       H   -10.16107  -18.74140   -1.82051
       O    -9.73844  -18.55944   -2.69611
      H1   -10.19804  -19.04643   -3.43228
       H   -12.15204  -16.09846    1.85706
       O   -11.48819  -16.57198    1.36344
      H1   -11.19215  -15.98464    0.67057
       H    -9.87287  -16.64852    5.04099
       O    -9.61602  -15.75290    5.26763
      H1    -9.70396  -15.59834    6.20643
       H    -7.56073  -17.57158    2.89169
       O    -6.71625  -17.16097    2.99348
      H1    -6.66922  -16.48703    2.26639
       H    -5.38472  -12.32498    2.16188
       O    -5.42195  -12.22717    3.12363
      H1    -5.57933  -13.08033    3.51972
       H    -2.04752  -17.24141    3.90925
       O    -2.39197  -17.95267    4.40377
      H1    -1.64092  -18.54770    4.54010
       H    -5.26808  -15.14973   -0.37295
       O    -4.78834  -14.80764   -1.15375
      H1    -3.85895  -15.10680   -1.13783
       H    -6.16148  -17.36883   -4.10561
       O    -5.27811  -17.28841   -3.64807
      H1    -4.82337  -16.50321   -3.95551
       H    -3.82971  -15.02347    6.46326
       O    -4.09480  -14.17990    6.02648
      H1    -4.98383  -14.36371    5.72155
       H    -7.21788  -13.94565    4.99048
       O    -6.31213  -14.26151    4.66739
      H1    -6.33176  -15.23564    4.60120
       H    -1.44650  -15.28514   -0.83097
       O    -1.92677  -16.02226   -0.42579
      H1    -1.62050  -16.68297   -1.02492
       H    -3.32613   -9.55364    2.00024
       O    -3.06119  -10.40203    2.41663
      H1    -3.91318  -10.84632    2.46291
       H    -1.66283  -15.85265    1.50530
       O    -1.42945  -16.13857    2.38541
      H1    -1.13254  -15.34817    2.88215
       H    -3.89562  -14.02382   -4.42841
       O    -4.16724  -14.88519   -4.09047
      H1    -4.30202  -14.86947   -3.12636
       H    -3.88335  -18.38210    2.99133
       O    -4.50513  -18.88672    2.39390
      H1    -5.37125  -18.56135    2.70206
       H    -7.69575  -12.65010   -2.42831
       O    -6.81095  -12.31024   -2.63542
      H1    -6.23305  -13.04103   -2.41308
       H    -5.40105  -11.28293    0.01937
       O    -5.24207  -12.19841    0.39433
      H1    -5.29218  -12.81126   -0.34968
       H    -6.95136  -16.09451    0.35904
       O    -6.67609  -15.42010    0.94438
      H1    -7.36370  -14.73116    0.94759
       H    -7.90980  -12.44000    1.64164
       O    -8.42162  -13.21378    1.41247
      H1    -8.74769  -12.90048    0.58495
       H   -11.94404  -13.74121   -1.81829
       O   -11.69901  -14.23055   -1.03305
      H1   -12.44422  -14.14414   -0.49150
       H    -8.01702  -17.70669   -1.77201
       O    -7.29414  -17.11489   -1.51676
      H1    -7.15970  -16.51073   -2.21405
       H    -2.79578  -11.99789   -0.09646
       O    -2.15662  -11.83756   -0.73005
      H1    -1.50926  -11.19548   -0.46903

