84
frame 6 | Written by MDAnalysis XYZWriter (release 2.4.3)
       H     3.41635   13.19299   16.09209
       O     4.11246   13.42082   16.73997
      H1     4.93636   13.09121   16.26340
       H     4.55750   11.38093   16.81522
       O     4.38423   10.44046   16.71155
      H1     5.07085   10.03191   17.23756
       H     5.23561   12.25159   14.12105
       O     5.89348   12.14133   14.85958
      H1     5.83479   11.25644   15.20920
       H     3.97403   15.00429   18.06357
       O     3.65013   15.73829   18.54280
      H1     4.48420   16.23096   18.81994
       H     3.51671   12.68758   13.02318
       O     4.21810   12.10162   12.76550
      H1     4.08053   11.93796   11.84717
       H     2.42687   18.30717   13.96688
       O     2.07462   19.19384   13.82885
      H1     2.72073   19.76106   14.36270
       H     3.92998   16.40485   13.66088
       O     3.06027   16.17203   14.01474
      H1     2.60190   15.78294   13.28463
       H     5.48184   18.14533   12.49758
       O     5.44091   17.29350   12.93969
      H1     5.56562   16.53884   12.27705
       H     6.46946   16.60778   14.19857
       O     7.24462   16.12096   14.60203
      H1     7.12042   15.18087   14.39294
       H     1.02694   14.29148   18.70269
       O     0.20174   14.68557   18.33225
      H1     0.28065   14.98037   17.40259
       H    -0.75315   10.34562   12.59681
       O    -1.44307    9.77732   12.94037
      H1    -1.54752   10.05292   13.91346
       H     2.33071    9.59794   14.52033
       O     2.03861    9.45162   15.46988
      H1     2.85238    9.50715   16.01513
       H     4.75012   13.49124   10.35983
       O     4.52339   12.63580   10.02966
      H1     4.30649   12.71556    9.12752
       H    -0.80749   13.24680   17.63348
       O    -1.43616   12.55283   17.28497
      H1    -2.15900   12.56476   17.96670
       H    -0.46407   14.81895   15.27188
       O     0.17225   15.43083   15.67968
      H1    -0.30604   16.26147   15.83889
       H    -1.53706   12.53699   14.84721
       O    -0.88177   13.03189   14.36303
      H1    -0.71518   12.50564   13.57810
       H     0.49602   16.04613   11.53779
       O     1.25947   15.53255   11.82376
      H1     0.99579   14.61503   11.81293
       H     1.80260   16.58646   16.05609
       O     2.02404   17.27814   16.71288
      H1     2.55964   16.89842   17.45605
       H     2.50659   16.23506   10.86466
       O     3.20679   16.31094   10.22880
      H1     3.01728   16.16413    9.32725
       H     6.04039   11.71416   10.95599
       O     6.71933   11.00501   10.94733
      H1     7.45115   11.40320   11.37392
       H     1.26766   11.91433   11.97811
       O     0.31705   12.21625   12.10984
      H1     0.01019   12.32359   11.19178
       H    -2.95706   11.04669   15.52830
       O    -2.32499   10.28432   15.57387
      H1    -1.60227   10.53507   16.14656
       H     6.05337   15.04225   10.82615
       O     5.33538   15.09314   11.44132
      H1     4.61290   15.42129   10.94730
       H     0.52836   10.29056   16.78569
       O    -0.19188   10.33477   17.37603
      H1    -0.46239   11.27770   17.30289
       H    -2.62726   14.01084   16.00598
       O    -3.40094   14.19141   15.37013
      H1    -3.07074   14.90507   14.81439
       H     3.14141    9.30556   12.48474
       O     2.62893    9.95645   13.04294
      H1     3.35353   10.52785   13.31223
       H     2.54496   14.51657   14.44802
       O     2.35397   13.56153   14.32902
      H1     1.38205   13.58978   14.44868
       H     0.55716   11.53085    9.31789
       O     1.47234   11.29330    9.64552
      H1     1.34169   10.40938    9.91804

