84
frame 7 | Written by MDAnalysis XYZWriter (release 2.4.3)
       H   -17.12989   12.45754   -4.58648
       O   -18.01954   12.73737   -4.26132
      H1   -18.63277   11.94535   -4.19805
       H   -15.70478    4.36503   -2.49459
       O   -15.02291    4.56250   -3.13031
      H1   -14.92353    5.53037   -3.04723
       H   -19.07834    6.73824    1.58187
       O   -18.28488    6.51000    2.10520
      H1   -17.55792    6.64757    1.48669
       H   -13.10960    9.10765   -0.46096
       O   -12.49898    8.51919   -0.92868
      H1   -12.18231    7.76275   -0.37416
       H   -14.90639    8.40138   -3.19316
       O   -14.68817    7.58670   -2.69925
      H1   -14.00463    7.80348   -2.06253
       H   -12.24557   12.61052    1.05949
       O   -12.95439   12.41618    1.73030
      H1   -13.49616   11.71390    1.33275
       H   -15.08603   12.96253   -2.20101
       O   -14.44392   12.24388   -2.17026
      H1   -14.80337   11.59094   -1.54499
       H   -19.83637    9.54536    1.71091
       O   -19.64931    9.93487    2.61331
      H1   -19.43122    9.22253    3.21393
       H   -16.88370    4.46997   -5.80559
       O   -16.23676    3.80001   -5.64800
      H1   -15.79259    4.13235   -4.83926
       H   -18.26438    9.28531   -5.25128
       O   -17.94662    9.85064   -4.53591
      H1   -18.16024    9.30736   -3.76990
       H   -15.14510   10.74094   -3.96874
       O   -15.22487    9.84149   -4.20861
      H1   -16.18797    9.71910   -4.41351
       H   -18.70125    7.80947   -7.21269
       O   -18.01728    7.76470   -6.54080
      H1   -17.19677    8.01787   -6.97961
       H   -18.31636    7.40701    4.01336
       O   -18.80285    7.84599    4.71615
      H1   -18.10575    8.16641    5.26268
       H   -11.87413   11.42739   -3.31286
       O   -12.35860   12.15673   -3.75777
      H1   -13.01603   12.42780   -3.14040
       H   -15.33637    4.78413    1.23691
       O   -15.00307    4.63326    0.34507
      H1   -14.79273    3.69039    0.24016
       H   -14.37274    9.51500    1.36629
       O   -14.37447   10.31905    0.85425
      H1   -15.29827   10.45447    0.55414
       H   -18.61595    5.53666   -1.95280
       O   -17.68965    5.59837   -2.27337
      H1   -17.77257    5.53287   -3.23714
       H   -17.87111   14.52153   -1.49711
       O   -17.17848   13.88213   -1.77241
      H1   -17.62762   13.37748   -2.45105
       H   -18.16741    4.64056    2.38649
       O   -18.07862    3.69535    2.57188
      H1   -17.55230    3.77774    3.34909
       H   -15.56711   11.89603   -5.77670
       O   -15.65004   12.56909   -5.12435
      H1   -14.91568   13.19532   -5.27768
       H   -13.75511    6.98373    2.10117
       O   -14.43282    7.67820    1.93273
      H1   -15.07884    7.29879    1.28867
       H   -18.29383    6.31627   -5.80124
       O   -18.37358    5.40970   -5.43298
      H1   -19.20176    5.05139   -5.86846
       H   -18.96446    2.11844   -0.76014
       O   -19.31496    2.24722    0.13797
      H1   -18.88261    3.08408    0.46621
       H   -17.15894    2.81389   -4.23671
       O   -17.53749    2.29779   -3.50683
      H1   -16.95088    1.54172   -3.47907
       H   -18.51714    8.54701   -1.48638
       O   -17.74437    8.63375   -2.07639
      H1   -17.35683    7.75726   -2.12994
       H   -17.27651   10.24749   -0.67472
       O   -16.91880   10.69880    0.05551
      H1   -17.63305   11.29626    0.40797
       H   -16.19579    6.16091   -0.20213
       O   -16.41573    6.99511    0.19049
      H1   -16.46681    7.59610   -0.55153
       H   -13.21536    8.67087   -5.78943
       O   -13.17421    7.78303   -5.34950
      H1   -13.62382    7.83841   -4.47935

