84
frame 7 | Written by MDAnalysis XYZWriter (release 2.4.3)
       H   -16.93803    4.26663   18.47505
       O   -16.03291    4.32283   18.33926
      H1   -15.82538    5.25515   18.57064
       H   -10.68777    6.29160   13.55947
       O   -10.99801    6.35731   14.52738
      H1   -11.52728    7.15047   14.57481
       H   -12.42957    2.43848   13.51210
       O   -12.35625    1.55385   13.11419
      H1   -11.85929    1.06461   13.79499
       H   -11.80242    1.34550   18.72098
       O   -11.16826    1.46291   18.02985
      H1   -10.38492    1.52213   18.58030
       H   -13.24858    3.99983   15.24375
       O   -12.67035    4.17377   14.52101
      H1   -11.96879    4.64136   14.89416
       H   -16.59418    6.22414   15.51418
       O   -15.74924    6.63109   15.51960
      H1   -15.28844    6.32610   14.69350
       H   -11.42582    9.83619   17.44009
       O   -12.28176    9.93674   17.82645
      H1   -12.76988   10.28203   17.07652
       H   -14.13347    9.68106   18.64188
       O   -14.46570    9.83287   19.55149
      H1   -15.11582    9.16648   19.67064
       H   -14.97735    9.95982   15.91702
       O   -15.80831    9.38505   15.92828
      H1   -15.51920    8.48365   15.82312
       H   -13.61595    9.05147   14.40519
       O   -13.19546    8.20067   14.63325
      H1   -13.29715    8.05669   15.57891
       H    -7.90961    2.11740   14.65743
       O    -7.58469    2.86492   15.13972
      H1    -7.39215    3.55518   14.52409
       H   -14.25076    6.67767   16.67575
       O   -13.73324    7.09241   17.36687
      H1   -13.04700    6.45867   17.61727
       H   -10.26709   -2.62046   19.69549
       O   -10.25215   -1.67918   19.62873
      H1   -10.91218   -1.48362   18.96799
       H   -14.78282    5.45711   12.19467
       O   -14.80481    5.43494   13.15183
      H1   -13.96693    4.98941   13.38113
       H    -9.98697    7.31183   17.08458
       O    -9.40725    6.56197   16.80255
      H1    -9.82583    6.31785   15.95429
       H    -8.41765    7.42553   15.25307
       O    -7.78112    7.91689   14.64401
      H1    -7.03865    8.03072   15.22544
       H    -9.92282   10.25053   15.82637
       O    -9.91151    9.80279   16.67806
      H1    -9.44229   10.38732   17.29122
       H   -11.97993    4.05148   11.02314
       O   -11.17189    3.80494   11.51580
      H1   -11.52617    3.75344   12.42477
       H    -5.11445    5.23942   19.43321
       O    -6.04392    4.91265   19.68709
      H1    -6.12652    3.99183   19.53451
       H   -13.55202   -0.84277   18.70060
       O   -12.86175   -1.35634   18.29289
      H1   -12.95766   -1.22940   17.31433
       H    -8.67365   -0.25307   13.85649
       O    -8.73032    0.66329   14.01000
      H1    -9.63187    0.73231   14.45247
       H   -15.01657    6.95989   18.67512
       O   -15.71360    6.91934   19.36125
      H1   -15.31746    6.71154   20.21305
       H   -15.20465    3.49429   16.92573
       O   -14.69598    3.04561   16.25627
      H1   -15.46521    2.98173   15.60555
       H   -11.50861    4.44105   18.34761
       O   -12.23135    4.85458   18.78234
      H1   -11.87780    5.11125   19.63245
       H   -15.12359    1.58178   17.21113
       O   -15.50141    0.81565   17.77445
      H1   -14.73458    0.75986   18.43486
       H    -5.70558    2.28382   17.76489
       O    -5.44236    2.22811   16.83204
      H1    -6.18273    2.54886   16.26732
       H    -7.92990    5.25062   19.46381
       O    -8.79933    5.26367   19.05838
      H1    -8.76964    5.45015   18.14189
       H   -11.19612    0.61614   16.26223
       O   -11.22754    0.39205   15.31061
      H1   -11.92528   -0.31817   15.28748

