84
frame 8 | Written by MDAnalysis XYZWriter (release 2.4.3)
       H    -9.72574    7.45212  -16.31321
       O    -9.27805    8.01682  -15.68598
      H1    -8.89497    8.73469  -16.20334
       H    -7.73575    0.64356  -16.55129
       O    -7.36595    0.91842  -15.69719
      H1    -7.32676    1.88363  -15.65668
       H   -13.84291   -1.65753  -16.49834
       O   -14.27579   -0.83576  -16.68734
      H1   -14.56162   -0.38693  -15.86979
       H   -16.82027    5.73100  -17.03382
       O   -16.74364    5.22286  -16.24127
      H1   -16.02834    5.66722  -15.78642
       H   -17.72367   -0.13296  -16.39309
       O   -17.91855   -0.95930  -15.93094
      H1   -17.11229   -1.50651  -16.16059
       H    -8.93616    5.57959  -20.16559
       O    -9.70651    5.45972  -19.60004
      H1    -9.98839    6.27190  -19.14630
       H   -17.67556    2.23361  -16.51594
       O   -18.04245    1.57941  -17.18710
      H1   -17.45638    1.27169  -17.89249
       H   -11.37093    6.80790  -17.09492
       O   -10.68344    7.10419  -17.71317
      H1   -10.88403    8.08284  -17.64881
       H   -14.81566    0.90461  -11.38260
       O   -14.54012    1.77867  -11.12247
      H1   -15.24995    2.18226  -10.67923
       H   -10.52557    5.56613  -13.00964
       O   -10.01283    6.19349  -13.56490
      H1    -9.11755    5.86363  -13.46091
       H   -11.55903    4.95670  -11.04073
       O   -11.37469    4.55127  -11.89622
      H1   -12.18612    4.24022  -12.28626
       H   -16.40119    6.18055  -13.43556
       O   -15.59083    5.73435  -13.17173
      H1   -14.89022    6.37508  -13.24254
       H   -15.94426   -0.86582  -19.15866
       O   -15.22616   -1.49245  -19.31826
      H1   -14.76399   -1.43566  -18.42491
       H   -10.15466    3.19742  -11.85853
       O    -9.21148    2.90193  -11.75182
      H1    -8.74584    3.68771  -12.14861
       H    -9.62231   -1.63317  -15.50646
       O    -9.58120   -2.53009  -15.09799
      H1   -10.44137   -2.75166  -14.71437
       H    -9.84418    4.15123  -18.00548
       O    -9.76688    3.39791  -17.37152
      H1   -10.67811    3.16636  -17.14803
       H   -10.40682    0.74108  -19.27087
       O    -9.89840    1.54420  -19.38821
      H1    -9.98045    2.11132  -18.61838
       H   -14.25213    4.24983  -13.14741
       O   -13.60502    3.55345  -13.25841
      H1   -13.96788    2.78499  -12.74483
       H   -10.02551   -1.37712  -13.53769
       O   -10.15275   -0.50158  -13.19557
      H1    -9.30734   -0.01221  -13.31900
       H    -7.31279    4.45452  -16.00721
       O    -7.61358    3.64586  -15.43194
      H1    -8.49319    3.65401  -15.82563
       H   -11.13613   -0.70604  -17.36779
       O   -11.05140   -0.44862  -16.43235
      H1   -11.40035   -1.17428  -15.88768
       H   -13.65153    4.68193  -17.64059
       O   -13.85185    5.36306  -17.02000
      H1   -13.05960    5.50142  -16.49719
       H   -17.02478    2.34390  -14.29570
       O   -16.59399    2.54158  -15.16830
      H1   -16.64186    3.49746  -15.21096
       H   -12.80965    2.57387  -16.22759
       O   -12.06825    2.15075  -16.71241
      H1   -11.93532    1.24119  -16.34612
       H   -14.10510    7.01456  -19.75492
       O   -14.55372    7.17633  -18.92248
      H1   -14.08806    6.61119  -18.26820
       H   -12.52202    6.78320  -14.79454
       O   -12.00884    6.24033  -15.38998
      H1   -11.15617    6.04680  -14.91637
       H   -15.16611    1.50963  -14.64502
       O   -14.65159    0.72696  -14.30346
      H1   -13.73357    1.03172  -14.09158
       H   -13.77618    8.03603  -12.75318
       O   -13.79855    7.67591  -13.65748
      H1   -14.46136    8.29757  -13.99817

