84
frame 7 | Written by MDAnalysis XYZWriter (release 2.4.3)
       H   -15.76200   -5.62176    9.87055
       O   -16.38532   -6.38358    9.85816
      H1   -17.16793   -6.03435    9.44070
       H   -17.86982   -9.88994   11.92715
       O   -18.11699  -10.75542   12.28656
      H1   -19.07766  -10.95603   12.34896
       H   -16.87379   -4.81390   13.34111
       O   -16.12176   -4.19312   13.48380
      H1   -16.13767   -4.21314   14.43959
       H   -14.24693  -10.03257   15.21200
       O   -13.95100  -10.83502   15.63540
      H1   -13.25366  -10.55837   16.32874
       H   -13.46385   -8.34297    8.45454
       O   -14.19296   -8.81840    8.85738
      H1   -14.83683   -8.14621    9.05143
       H   -16.46227   -2.67350   12.53318
       O   -16.25734   -2.18251   11.71400
      H1   -17.09536   -1.70231   11.58353
       H   -17.37974   -7.42842   11.01038
       O   -18.02248   -8.02982   11.47408
      H1   -18.82566   -8.05714   10.90634
       H   -17.66610  -10.48965   14.17768
       O   -17.59036  -10.19568   15.09341
      H1   -16.75266   -9.75082   14.99960
       H   -18.08014  -10.23848    9.17990
       O   -17.76577   -9.44804    8.75712
      H1   -17.28871   -9.04732    9.52255
       H   -14.26562   -5.25920   11.47929
       O   -14.50502   -4.58530   10.85918
      H1   -13.75957   -4.56600   10.27736
       H   -17.42764   -6.56527   14.04803
       O   -17.94504   -6.15807   13.39447
      H1   -17.93210   -6.78320   12.65566
       H   -18.57623   -3.01223   15.43943
       O   -18.78114   -3.82295   15.93871
      H1   -18.53902   -3.62435   16.82343
       H   -14.94161  -12.30195   12.69588
       O   -15.27981  -11.38584   12.72539
      H1   -16.22126  -11.54998   12.62211
       H   -18.66207   -5.31601   18.34682
       O   -18.64026   -4.44030   18.74120
      H1   -18.47318   -4.54343   19.65363
       H   -13.38867   -7.33455   11.87445
       O   -13.94462   -7.07450   12.60706
      H1   -13.37494   -6.41211   13.11609
       H   -13.94485  -10.50154   11.76374
       O   -13.27334  -10.46614   11.02956
      H1   -13.56881   -9.74955   10.40287
       H   -17.98973   -2.90240    9.96577
       O   -18.07185   -3.19778    9.08350
      H1   -18.75297   -2.58011    8.74489
       H   -16.08412   -8.04465   17.86285
       O   -16.45090   -8.63922   17.17884
      H1   -15.84559   -9.39125   17.11275
       H   -13.74736   -6.70938   16.40309
       O   -14.09295   -5.85462   16.02920
      H1   -15.02097   -5.98704   15.81459
       H   -16.86200   -7.24010   16.13445
       O   -16.80312   -6.29853   15.81084
      H1   -17.68946   -5.97986   15.90925
       H   -17.89250  -12.73015    9.62000
       O   -18.41621  -11.92079    9.89434
      H1   -18.16326  -11.73125   10.81430
       H   -15.13740   -3.19034   17.02306
       O   -15.22808   -2.94823   16.05278
      H1   -15.69252   -2.09207   15.98161
       H   -19.54735   -6.40969    9.36948
       O   -18.87138   -5.92796    8.88048
      H1   -18.79388   -5.05820    9.22925
       H   -19.39700   -0.70817   11.15505
       O   -18.84202   -1.46217   11.44120
      H1   -19.00677   -1.61352   12.43561
       H   -18.13335   -1.08436   14.58643
       O   -18.80754   -1.67436   14.26602
      H1   -19.63353   -1.42370   14.68368
       H   -15.86326   -2.95808    7.15516
       O   -15.52835   -3.47900    7.86920
      H1   -16.25571   -3.74295    8.41691
       H   -13.21169   -4.85110   14.93828
       O   -13.02345   -4.37307   14.09699
      H1   -13.92715   -4.19648   13.84930
       H   -15.14933   -9.64618   13.51877
       O   -15.02565   -8.92558   14.12168
      H1   -14.50798   -8.24942   13.62140

