84
frame 8 | Written by MDAnalysis XYZWriter (release 2.4.3)
       H     3.93486   -2.43416   12.77800
       O     4.63357   -2.50424   12.10396
      H1     4.31972   -2.01704   11.33185
       H     0.95999   -1.39557   18.85536
       O     1.39296   -1.86464   18.09931
      H1     1.23593   -2.77796   18.31690
       H     1.33279   -6.81350   14.42764
       O     2.02314   -6.51527   15.03767
      H1     2.83318   -6.82366   14.71449
       H    -0.91905   -7.45816   13.02867
       O    -0.28455   -6.77984   13.46945
      H1     0.10964   -6.31435   12.78105
       H     4.27609   -4.97758   15.53205
       O     4.74796   -4.13609   15.46615
      H1     5.64061   -4.35687   15.02479
       H     5.25579   -0.73428   16.51153
       O     5.43912   -1.43129   15.81728
      H1     5.10260   -2.29853   16.11121
       H     2.95342   -0.35137   10.87709
       O     3.56538   -0.86001   10.35075
      H1     4.40121   -0.34389   10.29190
       H    -0.23992   -3.31534   14.07403
       O    -1.07548   -3.12111   13.52095
      H1    -1.14646   -2.17571   13.48815
       H    -1.06782   -7.52736   16.47799
       O    -1.55103   -8.33537   16.26028
      H1    -2.45370   -8.24393   15.95657
       H     0.60426  -10.85497   16.25198
       O     0.49441  -10.09141   15.64665
      H1    -0.32135   -9.56138   15.81270
       H    -0.33222   -2.32783   10.39923
       O     0.08050   -2.73182   11.15775
      H1    -0.59432   -2.85601   11.81792
       H    -1.76039   -4.25239   14.61023
       O    -2.17512   -4.80898   15.23484
      H1    -1.93254   -5.67076   14.85418
       H     2.70571   -0.90193   13.67888
       O     3.23265   -1.54629   14.20116
      H1     3.93691   -1.14434   14.70109
       H     2.14606   -5.91110   11.18608
       O     1.27290   -5.84216   10.81784
      H1     0.98134   -4.94611   11.09386
       H     0.24601   -0.48135   14.43766
       O     0.06853   -0.41917   15.37798
      H1     0.65210   -0.97544   15.87209
       H     4.23353   -4.32291   11.51404
       O     4.28453   -5.25673   11.22756
      H1     5.19054   -5.53559   11.33482
       H     4.38458   -6.72465   12.78557
       O     4.35391   -7.07550   13.67747
      H1     4.66691   -7.99506   13.63958
       H     4.43533   -7.16667   18.52893
       O     4.17922   -6.72597   17.71449
      H1     5.07173   -6.38725   17.48943
       H     2.04776   -2.98384   14.90408
       O     1.46022   -3.75596   14.69041
      H1     2.00774   -4.53847   14.80961
       H     5.71996   -1.41733   12.76315
       O     6.36701   -0.87210   13.24603
      H1     6.16934   -1.16997   14.11746
       H    -2.02477   -5.29245   18.88130
       O    -2.57682   -4.78853   18.29622
      H1    -2.26254   -4.83881   17.39307
       H    -0.52040   -5.28807   16.04169
       O     0.03905   -5.88830   16.58286
      H1     0.80486   -6.12723   16.04926
       H     0.77900   -1.05157   12.18030
       O     1.22788   -0.36060   12.68120
      H1     0.94411    0.53762   12.53143
       H     3.50735   -1.19519   18.81019
       O     4.33801   -1.46745   19.22532
      H1     4.11488   -1.49416   20.15757
       H     6.46537   -6.76305   14.36674
       O     7.04113   -6.40714   15.04847
      H1     7.86744   -6.80185   14.79203
       H     6.86715   -5.88764   16.89218
       O     6.85663   -5.98638   17.84537
      H1     6.58005   -5.12778   18.22051
       H     2.45201   -5.85699   18.37881
       O     1.87389   -5.11333   18.58969
      H1     1.12160   -5.43977   18.09360
       H     1.88114   -9.08214   16.65715
       O     2.65724   -9.06285   17.22496
      H1     2.96777   -8.14073   17.22439

