84
frame 8 | Written by MDAnalysis XYZWriter (release 2.4.3)
       H    -6.78996   -7.00406    8.75048
       O    -7.65357   -7.42617    8.61489
      H1    -7.70778   -8.34465    8.95584
       H    -4.21453   -2.63242   11.74116
       O    -4.57948   -1.77185   11.96505
      H1    -3.79419   -1.30221   12.29924
       H    -3.58459   -4.83290   12.02278
       O    -3.12037   -4.06169   11.70039
      H1    -3.11783   -4.15208   10.75934
       H    -7.15878   -3.53553   11.01663
       O    -7.32819   -4.04401   11.82305
      H1    -6.81718   -3.60863   12.52749
       H    -1.77607   -0.22185   12.19592
       O    -2.22430   -0.53440   12.96560
      H1    -2.18228    0.10830   13.67708
       H    -0.91905   -7.45816   13.02867
       O    -0.28455   -6.77984   13.46945
      H1     0.10964   -6.31435   12.78105
       H    -0.79308   -4.34388    7.81793
       O    -1.34865   -3.67692    7.39460
      H1    -0.88573   -2.93485    6.95022
       H    -7.53426   -3.75325    8.99703
       O    -6.85220   -3.15400    9.33285
      H1    -5.98278   -3.62594    9.17541
       H    -2.77310   -6.70089    9.44830
       O    -1.86996   -7.01162    9.65208
      H1    -1.38771   -6.25997    9.11273
       H    -2.80462   -8.95982   12.29218
       O    -1.94982   -8.54437   12.05388
      H1    -2.11542   -8.12802   11.11863
       H    -7.31236   -7.36113   15.09224
       O    -7.44355   -6.43741   14.79812
      H1    -8.20456   -6.53117   14.22818
       H    -0.23992   -3.31534   14.07403
       O    -1.07548   -3.12111   13.52095
      H1    -1.14646   -2.17571   13.48815
       H    -1.06782   -7.52736   16.47799
       O    -1.55103   -8.33537   16.26028
      H1    -2.45370   -8.24393   15.95657
       H    -5.28084   -6.82751   10.32917
       O    -4.89892   -6.79198    9.45106
      H1    -4.77384   -7.68165    9.12730
       H    -0.33222   -2.32783   10.39923
       O     0.08050   -2.73182   11.15775
      H1    -0.59432   -2.85601   11.81792
       H    -1.76039   -4.25239   14.61023
       O    -2.17512   -4.80898   15.23484
      H1    -1.93254   -5.67076   14.85418
       H     2.14606   -5.91110   11.18608
       O     1.27290   -5.84216   10.81784
      H1     0.98134   -4.94611   11.09386
       H    -2.47470   -1.12594    8.95945
       O    -1.59335   -1.47963    9.13288
      H1    -1.36031   -2.20246    8.48581
       H    -5.42936   -2.26959   13.38627
       O    -6.12730   -2.69882   13.96794
      H1    -6.86420   -2.11065   13.88584
       H    -4.65447    0.54495    9.20320
       O    -3.82297    0.06191    9.33200
      H1    -3.88853   -0.32272   10.21406
       H    -0.01087   -9.30116    9.91350
       O    -0.14161   -8.93608    9.01308
      H1    -0.78866   -8.20440    9.00232
       H    -4.13119   -4.05217    8.02049
       O    -4.31756   -4.22202    8.94362
      H1    -4.62860   -5.12669    8.79885
       H    -5.11074   -9.90032   12.44902
       O    -4.52659   -9.21188   12.09518
      H1    -4.77882   -8.35157   12.32744
       H    -0.52040   -5.28807   16.04169
       O     0.03905   -5.88830   16.58286
      H1     0.80486   -6.12723   16.04926
       H    -6.04705   -2.36469   15.67369
       O    -5.96066   -2.60968   16.59950
      H1    -5.34989   -1.95085   16.98960
       H    -4.32677   -6.76311   15.82532
       O    -3.93892   -7.38656   15.18554
      H1    -4.64901   -8.07714   15.07781
       H    -4.14679   -5.29394   17.35909
       O    -4.96803   -5.81022   17.09620
      H1    -5.57459   -5.11245   16.82781
       H    -5.46208   -5.60062   12.60093
       O    -4.75561   -6.24230   12.52635
      H1    -4.31593   -6.25325   13.41518

