84
frame 7 | Written by MDAnalysis XYZWriter (release 2.4.3)
       H    -5.72159  -16.54798   14.40324
       O    -5.79428  -16.18126   13.53391
      H1    -4.94023  -16.33257   13.06159
       H     1.83337  -13.51038    7.94322
       O     2.27698  -13.01918    8.66403
      H1     2.61557  -12.15863    8.27338
       H     0.65355  -12.11368   11.38107
       O     0.89747  -13.02758   11.16045
      H1     1.21756  -13.00526   10.26301
       H    -5.88079  -12.78917   13.68013
       O    -5.41916  -13.53211   14.20573
      H1    -5.74003  -14.38855   13.85945
       H    -3.28087  -14.11691   16.47552
       O    -3.06270  -15.08094   16.48359
      H1    -3.85739  -15.48678   16.92467
       H    -1.58719  -11.78213   14.75963
       O    -2.00032  -10.91302   14.74861
      H1    -1.30749  -10.39618   15.19847
       H    -4.85734  -10.75354   16.60888
       O    -4.67594  -10.35244   15.75690
      H1    -3.82536  -10.68193   15.45080
       H    -4.13705  -15.68190   10.43110
       O    -3.71127  -15.71862   11.24478
      H1    -2.88380  -16.22925   11.20411
       H    -0.82662  -18.79142    9.28643
       O    -1.53086  -18.08479    9.36201
      H1    -1.02211  -17.44758    9.89014
       H    -3.98018  -12.29301   10.53288
       O    -4.49710  -12.52189   11.33125
      H1    -4.80753  -13.42200   11.13985
       H     0.03386  -10.70018    8.57976
       O    -0.48589  -11.27050    8.02640
      H1    -0.02360  -11.77662    7.36806
       H    -0.08518   -9.60794   12.39785
       O     0.48862  -10.17529   11.80818
      H1     1.45697   -9.99757   12.07118
       H    -5.33573  -11.46129   12.34519
       O    -5.95648  -10.86181   12.86267
      H1    -5.50757  -10.75748   13.70016
       H     2.83689  -17.94425   12.58424
       O     3.20917  -17.14084   12.16890
      H1     2.77714  -16.89401   11.29706
       H    -0.59056  -14.04696   12.83673
       O    -0.80095  -14.50488   13.67958
      H1    -1.73661  -14.73242   13.69349
       H     0.26533   -9.27339   10.53260
       O     0.32613   -8.85263    9.60389
      H1    -0.32622   -8.17022    9.78406
       H     3.77959   -9.57587   11.38959
       O     3.12036   -9.98614   11.87966
      H1     3.37531  -10.90439   11.59321
       H     1.56977  -15.07078   15.43913
       O     0.85679  -15.71983   15.43244
      H1     0.17909  -15.31197   14.91405
       H     1.13577  -17.45332   18.07444
       O     1.21971  -16.45200   17.94736
      H1     0.99122  -16.18727   17.03575
       H     3.35918  -16.38694    9.27367
       O     2.78262  -15.81973    9.79613
      H1     2.73322  -14.96363    9.29844
       H     3.04363  -13.79401   16.56064
       O     2.54291  -13.04159   16.23163
      H1     3.21554  -12.29131   16.31543
       H    -3.19678  -16.38199   15.22870
       O    -3.20574  -17.00846   14.48060
      H1    -2.29442  -17.37895   14.50168
       H     0.10472  -18.45967   14.07638
       O    -0.73302  -18.53793   14.51380
      H1    -0.48707  -18.92905   15.36578
       H    -2.17378  -11.35365    9.21173
       O    -3.16105  -11.23514    9.30664
      H1    -3.25314  -10.24027    9.23440
       H     2.78305  -12.90862   11.76610
       O     3.74072  -12.68961   11.72394
      H1     4.06922  -12.71920   10.81800
       H     4.91598  -15.28146   13.84051
       O     4.43834  -15.83682   14.45585
      H1     3.67024  -16.13275   13.98316
       H     0.49454  -15.70884   10.77124
       O    -0.38079  -16.03502   11.05073
      H1    -0.84781  -15.28532   11.41288
       H     1.35134  -12.25503   17.37173
       O     0.61826  -11.89737   17.96161
      H1     0.99702  -11.89622   18.85561

