84
frame 0 | Written by MDAnalysis XYZWriter (release 2.4.3)
       H     8.27692    4.74388   -9.44000
       O     9.27072    4.66314   -9.36631
      H1     9.30855    4.01575   -8.60508
       H     8.89919    7.90888  -11.02213
       O     9.18687    8.54765  -10.34081
      H1     9.20180    8.21462   -9.45389
       H     3.38967    3.06920  -10.86298
       O     4.08866    2.40505  -10.64528
      H1     4.47192    2.68956   -9.79761
       H    10.36748    2.30015   -7.12900
       O     9.52943    2.84197   -7.28915
      H1     8.90804    2.11606   -7.37789
       H     5.57529    3.81255   -7.32618
       O     5.22973    3.24736   -8.03109
      H1     4.63183    2.64713   -7.61328
       H     6.06917    0.23548   -9.69814
       O     6.65131   -0.08158  -10.41274
      H1     6.57180    0.65260  -11.02546
       H     5.61341    1.31828  -13.51737
       O     5.40906    0.75792  -14.28002
      H1     6.11992    0.10636  -14.30709
       H     9.16225    6.70743  -13.32139
       O     8.67198    7.40971  -12.88347
      H1     8.83160    8.21394  -13.32281
       H     9.91132    4.81068  -14.51962
       O    10.15476    5.20496  -13.65903
      H1    11.05854    5.55208  -13.66201
       H    12.62557   -0.07910  -13.75545
       O    12.02511    0.36525  -14.35828
      H1    12.59106    0.45924  -15.14985
       H     5.54546    2.47905  -11.63239
       O     6.36628    2.17936  -12.09294
      H1     7.04083    2.87583  -12.09402
       H     6.43762    6.37752   -9.07111
       O     6.53382    5.58757   -9.69434
      H1     6.18346    5.75741  -10.61064
       H    10.29168    7.14355   -7.61679
       O     9.51261    7.07337   -8.17395
      H1     9.41905    6.13088   -8.40029
       H     8.81484    4.16740  -12.54489
       O     8.71128    3.51358  -11.82167
      H1     9.26521    3.85636  -11.04867
       H     7.77494    5.51277  -16.33184
       O     7.82376    4.64529  -15.88245
      H1     6.90703    4.54259  -15.57582
       H     7.26012    0.93793   -9.01309
       O     7.22955    1.27363   -8.11259
      H1     6.59465    2.02149   -8.14881
       H    14.81376    2.74567  -11.75617
       O    14.07547    2.08715  -11.70660
      H1    13.28080    2.57321  -11.98977
       H    10.77432   -1.12396   -9.38474
       O    11.09272   -1.29789  -10.29000
      H1    10.51131   -0.62268  -10.73864
       H    10.94188    6.72102  -10.97172
       O    11.87850    6.54715  -11.23390
      H1    12.23968    6.61451  -10.33628
       H     7.94699   -1.69995  -12.17012
       O     8.62043   -1.25442  -12.76236
      H1     8.80243   -0.45657  -12.26414
       H    10.01603    2.50498  -16.23620
       O    10.68068    3.20912  -16.02655
      H1    10.44184    3.92729  -16.64112
       H     9.22799    1.74229  -11.55484
       O     9.78489    0.98259  -11.78102
      H1    10.59146    1.31220  -12.16179
       H     5.18928    5.86202  -15.78238
       O     5.37558    5.41193  -14.92945
      H1     5.89970    5.97257  -14.32620
       H     7.09669    6.91223  -12.24120
       O     6.13262    6.80015  -12.39227
      H1     5.71577    7.59978  -12.10198
       H    11.62075    2.14258  -13.42894
       O    11.80225    2.82071  -12.76303
      H1    11.15202    3.49653  -12.97111
       H    12.18586    4.25179   -8.76015
       O    12.67442    3.91027   -8.01227
      H1    13.17973    3.17215   -8.41375
       H    12.36329    7.59537   -7.83898
       O    12.78960    7.32529   -8.63698
      H1    13.60185    6.89505   -8.40457
       H     9.30689    3.26246   -5.59785
       O     8.86448    3.33926   -4.71757
      H1     9.39984    3.85844   -4.09190

