84
frame 9 | Written by MDAnalysis XYZWriter (release 2.4.3)
       H    19.47378  -17.48769   -2.68268
       O    19.16538  -16.92822   -3.40909
      H1    18.20247  -17.06509   -3.50455
       H    17.16201  -15.63167    0.01309
       O    17.00949  -14.74015   -0.32543
      H1    16.39904  -14.88907   -1.09813
       H    11.77463  -13.86801    1.56590
       O    11.73485  -14.32107    2.42566
      H1    11.89507  -15.24082    2.11757
       H    18.49599  -13.79258   -0.30652
       O    19.13329  -13.03375   -0.31778
      H1    19.06429  -12.62299    0.58168
       H    13.84130  -17.71652   -3.71857
       O    12.89286  -17.84254   -3.91236
      H1    12.86951  -17.56681   -4.83007
       H    14.26717  -18.51119   -6.74420
       O    13.42323  -19.04264   -6.90061
      H1    12.75258  -18.55018   -6.47367
       H    15.78577  -12.74371    2.09337
       O    16.60780  -12.63513    1.62501
      H1    16.57366  -13.17820    0.81407
       H     8.55006  -16.75285   -0.81930
       O     9.22130  -16.10199   -0.64667
      H1     8.80148  -15.57903    0.06054
       H    11.23205  -18.99898   -0.57353
       O    11.10654  -19.93542   -0.38911
      H1    10.62649  -20.33453   -1.09598
       H     8.02504  -17.79749   -2.49972
       O     7.39218  -17.81734   -1.77131
      H1     6.56954  -17.58124   -2.30934
       H    15.66286  -17.33363   -7.11022
       O    15.74587  -17.87513   -6.30769
      H1    16.42074  -18.47351   -6.59612
       H    15.09795  -19.30058   -1.72952
       O    15.20847  -18.34633   -1.72619
      H1    15.79617  -18.20661   -0.96106
       H    14.09588  -12.45227   -1.07784
       O    13.45903  -13.09651   -0.74504
      H1    13.59387  -13.92385   -1.27196
       H    10.60016  -17.47788   -7.27213
       O    11.11915  -16.95123   -6.65710
      H1    10.52626  -16.17627   -6.38908
       H    13.61490  -15.33708   -7.54184
       O    12.90570  -15.61958   -8.09949
      H1    12.25107  -15.91050   -7.46908
       H    15.56364  -15.67989   -2.87298
       O    15.04187  -15.17898   -2.29255
      H1    14.27208  -15.63462   -1.99609
       H    14.80245  -14.27914   -5.84003
       O    15.25074  -14.89226   -6.42216
      H1    15.96603  -14.44812   -6.82756
       H    17.35352  -17.36923    4.71690
       O    17.10080  -16.69078    4.12730
      H1    16.94438  -15.90768    4.59934
       H    10.19575  -17.43524   -3.84863
       O     9.23098  -17.29417   -3.87489
      H1     9.15648  -16.34497   -3.73353
       H    13.45622  -12.95752   -4.42938
       O    13.48035  -13.84662   -4.06011
      H1    14.33278  -13.87446   -3.57722
       H    12.55175  -17.56212   -2.04895
       O    12.27297  -16.99112   -1.28385
      H1    11.37403  -16.62150   -1.32007
       H    18.95021  -18.89276    5.82761
       O    18.10466  -18.82463    5.30367
      H1    18.33163  -19.40620    4.52190
       H    13.97007  -18.27414    4.92752
       O    14.35016  -18.52514    5.82292
      H1    13.57456  -18.52962    6.36949
       H    17.85384  -17.87922    0.99464
       O    17.03737  -17.53679    0.57879
      H1    16.40116  -17.48190    1.32998
       H    14.24955  -17.37054    2.38429
       O    15.01100  -17.84566    2.73187
      H1    15.79841  -17.28697    3.04264
       H    12.82240  -16.77497    0.56730
       O    12.91792  -16.73856    1.51905
      H1    12.17060  -17.25016    1.94383
       H    10.05170  -18.18594    1.95569
       O    10.72310  -18.11460    2.60017
      H1    10.15132  -18.01731    3.43171
       H    15.91346  -17.40264   -4.51708
       O    16.40200  -17.18023   -3.72874
      H1    16.07154  -17.68806   -2.97843

