84
frame 9 | Written by MDAnalysis XYZWriter (release 2.4.3)
       H   -18.23847    1.06519   -5.45276
       O   -17.59456    1.78052   -5.70973
      H1   -17.04708    1.46344   -6.46556
       H   -17.17060   -0.18091  -10.22340
       O   -16.23899   -0.29118  -10.48962
      H1   -15.70944    0.23558   -9.90501
       H   -13.04945    1.79092   -5.87832
       O   -12.16106    2.19618   -5.77956
      H1   -11.55582    1.58992   -6.07410
       H   -16.39740   -5.43884   -2.53853
       O   -16.45997   -4.56254   -3.00153
      H1   -17.20453   -4.63533   -3.72230
       H   -16.27340   -5.75625   -7.73919
       O   -16.71570   -6.14092   -7.03384
      H1   -17.25711   -5.53844   -6.48724
       H   -15.67685   -1.95208  -11.46611
       O   -15.16549   -2.69776  -11.82308
      H1   -15.74527   -3.24346  -12.42395
       H   -14.27630   -3.44650   -4.78205
       O   -15.06322   -3.84680   -5.19567
      H1   -15.44304   -4.19545   -4.38125
       H   -20.23148   -2.99457  -10.56587
       O   -19.27713   -2.89867  -10.39796
      H1   -18.89985   -3.75314  -10.08591
       H   -15.77684   -3.37117   -8.85689
       O   -15.26195   -4.03597   -9.35669
      H1   -15.20818   -3.55754  -10.20595
       H   -15.90388   -2.80904   -6.41146
       O   -16.10098   -2.37029   -7.22793
      H1   -15.73674   -1.44522   -7.09887
       H   -18.21714   -5.78383  -10.89890
       O   -17.89214   -5.09692  -10.26875
      H1   -17.05235   -4.84596  -10.59507
       H   -13.45123    1.59985   -9.32208
       O   -12.89412    1.22917   -8.57517
      H1   -12.03110    1.04533   -9.01187
       H   -20.11196    0.41864  -10.35933
       O   -19.43147    0.17682   -9.69691
      H1   -19.39506   -0.78234   -9.79143
       H   -19.01420   -5.35311   -4.85729
       O   -18.23785   -4.80978   -5.05744
      H1   -18.54690   -3.93984   -5.30446
       H   -15.87760    2.14717   -4.74449
       O   -14.91833    2.19593   -4.58456
      H1   -14.61394    2.87263   -5.16347
       H   -13.62453   -6.36534   -7.32753
       O   -13.44744   -6.13915   -6.39648
      H1   -14.08259   -5.39848   -6.27686
       H   -19.44814   -2.51659   -7.09421
       O   -18.85557   -2.30432   -6.31172
      H1   -17.92773   -2.23729   -6.70332
       H   -13.46531   -0.13812   -3.16330
       O   -14.38073   -0.14141   -3.39287
      H1   -14.59090    0.79888   -3.41244
       H   -15.34669    2.14566   -7.77856
       O   -15.97856    1.46806   -7.97401
      H1   -15.73596    0.76679   -7.32538
       H   -12.27754   -4.37366   -4.27315
       O   -12.92719   -4.44638   -3.52569
      H1   -12.37210   -4.31256   -2.73663
       H   -18.43736   -7.90738   -9.64105
       O   -18.58690   -7.77481   -8.67520
      H1   -18.05673   -7.04889   -8.31981
       H   -13.75010   -0.10843   -6.46226
       O   -14.66216   -0.19288   -6.23981
      H1   -14.61271   -0.10442   -5.28589
       H   -11.66320   -3.29704   -8.44707
       O   -12.23650   -3.17345   -9.24161
      H1   -13.09232   -3.42103   -8.90765
       H   -18.54704   -3.17849   -2.81238
       O   -19.18858   -2.50880   -2.64858
      H1   -18.64392   -1.70213   -2.61750
       H   -16.34913   -0.90353   -2.00321
       O   -17.21614   -0.58837   -1.63742
      H1   -17.06387    0.34385   -1.45228
       H   -17.69483   -8.41984   -4.89297
       O   -16.71689   -8.32740   -4.96845
      H1   -16.57518   -7.59270   -5.64448
       H   -11.67577   -4.97972   -6.43034
       O   -11.60958   -4.16968   -5.87761
      H1   -10.68169   -3.85410   -5.93143
       H   -15.98483   -3.30338   -1.72208
       O   -15.62914   -3.00571   -0.87131
      H1   -16.36931   -2.83109   -0.32032

