84
frame 9 | Written by MDAnalysis XYZWriter (release 2.4.3)
       H    20.21608    5.24523   -9.59197
       O    19.97998    5.97609  -10.21270
      H1    19.18682    5.81733  -10.78405
       H    19.25919   -4.53640    0.30657
       O    18.55568   -5.20108    0.56222
      H1    18.57420   -5.22083    1.50222
       H    18.00480   -5.42776   -3.62861
       O    18.71714   -6.08910   -3.81958
      H1    19.17183   -6.21123   -3.01720
       H    13.18811    0.92419   -6.85167
       O    13.53329    0.51284   -7.66142
      H1    12.96402   -0.20027   -7.72605
       H    14.16228    3.53859   -5.39986
       O    13.87072    3.46777   -4.51420
      H1    13.31581    4.31234   -4.42093
       H    17.48290    6.64384   -5.92944
       O    17.26929    6.53171   -4.99994
      H1    17.74376    5.77516   -4.60709
       H    17.27060    2.49378   -0.41120
       O    17.44150    3.14125    0.32451
      H1    18.42133    3.41916    0.25153
       H    16.74175   -0.82050   -3.84648
       O    16.78140   -0.04327   -3.27050
      H1    15.92506    0.04160   -2.77201
       H    14.94165    0.54990   -0.87509
       O    14.59805    0.68194   -1.77155
      H1    14.99101    1.54623   -2.06058
       H    16.81726   -3.36493    1.23733
       O    16.11063   -3.06626    0.68083
      H1    16.48144   -3.10947   -0.19555
       H    16.63877   -3.84184   -2.89998
       O    16.75217   -4.22467   -3.73227
      H1    15.95574   -4.73564   -3.97479
       H    16.91479   -2.92081  -12.09662
       O    17.37756   -3.15344  -11.28208
      H1    17.16596   -2.48451  -10.60498
       H    16.54833    3.55261   -2.66077
       O    15.65805    3.31886   -2.41503
      H1    15.14068    3.45869   -3.24866
       H    17.17586   -2.26026   -8.47354
       O    16.96721   -1.53749   -9.11454
      H1    16.04818   -1.80213   -9.32607
       H    12.93267    2.02563   -4.60871
       O    12.47206    1.19491   -4.92884
      H1    12.23506    0.73132   -4.11655
       H    18.15246   -2.66732   -2.12071
       O    17.30361   -2.41331   -1.80302
      H1    17.12121   -1.46011   -1.80640
       H    18.05013    3.26346   -4.38520
       O    18.36903    4.14464   -4.08130
      H1    19.13855    4.22980   -4.66480
       H    13.40860   -2.14929   -5.73077
       O    14.00124   -2.20191   -6.57588
      H1    13.99002   -1.28497   -6.87574
       H    17.04179    3.80868  -10.16439
       O    17.65030    3.05383  -10.04121
      H1    17.36132    2.76543   -9.18475
       H    15.88472   -0.89296    0.60128
       O    16.15285   -0.01104    0.43679
      H1    15.83922    0.45821    1.20196
       H    19.64239   -0.32843   -5.23796
       O    19.68345    0.28534   -4.47319
      H1    18.77842    0.37458   -4.11808
       H    17.20346    1.28505   -5.96553
       O    17.14997    1.90822   -5.31127
      H1    16.54050    1.50624   -4.69333
       H    15.87548   -2.22529   -5.88787
       O    16.77251   -2.14697   -5.43407
      H1    16.89754   -2.94596   -4.91253
       H    14.78423    3.81285   -8.00366
       O    15.09139    3.68476   -7.07526
      H1    15.63739    2.90106   -7.00648
       H    16.43516    0.13378   -8.37893
       O    16.20082    0.99272   -8.07895
      H1    15.21494    0.94776   -8.10142
       H    18.17681    2.17110  -11.72904
       O    18.50083    1.47431  -12.29759
      H1    19.42278    1.68924  -12.59855
       H    17.56625   -2.98993   -6.77814
       O    17.93715   -3.39878   -7.61077
      H1    17.52316   -4.23275   -7.71093
       H    17.02350   -6.35789   -8.00826
       O    16.65895   -5.76883   -7.30404
      H1    15.86020   -5.42999   -7.70493

