84
frame 9 | Written by MDAnalysis XYZWriter (release 2.4.3)
       H    12.92700   12.80723  -16.31428
       O    13.74226   13.30984  -16.40832
      H1    14.31117   13.07930  -15.67603
       H    14.91214   20.04899  -19.46215
       O    15.08910   19.27969  -18.94458
      H1    15.90847   18.93157  -19.21418
       H     6.27907   17.69221  -16.76482
       O     5.69434   17.78585  -17.50266
      H1     6.16520   18.57836  -17.93443
       H    11.15052   14.16852  -19.79682
       O    10.33670   14.68954  -19.73476
      H1    10.34723   15.09148  -18.88403
       H     9.02309   18.88845  -16.52971
       O     9.10848   19.31746  -15.63638
      H1     9.35118   20.32251  -15.87937
       H     4.85631   15.81751  -14.88353
       O     5.41700   15.08867  -14.86521
      H1     5.11284   14.54663  -15.57285
       H    13.16024   17.92007  -18.73060
       O    12.36743   17.42177  -18.77716
      H1    12.18689   17.51276  -19.70669
       H     7.43598    9.43800  -16.83813
       O     8.37271    9.06261  -16.84625
      H1     9.02658    9.73802  -17.02987
       H     8.36826   16.60787  -14.58576
       O     7.66062   16.60429  -15.32204
      H1     6.84418   16.21238  -15.09719
       H    10.51609   15.69860  -16.28472
       O     9.89553   15.63386  -17.02152
      H1     9.05021   15.87941  -16.54909
       H     6.28839   14.13874  -17.80441
       O     6.65812   14.33486  -18.67862
      H1     7.57484   13.98419  -18.47975
       H     9.12720   14.08960  -17.61843
       O     8.68043   13.17430  -17.61896
      H1     8.19902   13.13311  -16.77549
       H    12.99572   15.05899  -16.01346
       O    12.44916   15.86524  -15.95247
      H1    12.29776   16.18942  -16.88789
       H    12.20606   16.51514  -14.03579
       O    12.12391   16.47288  -13.10628
      H1    11.13712   16.38286  -13.05613
       H     9.83664   11.30725  -19.69910
       O    10.03496   10.54881  -19.10706
      H1    10.93713   10.28521  -19.24450
       H     4.18794   13.17279  -17.34616
       O     4.89041   13.17489  -16.68622
      H1     4.79365   12.31451  -16.23247
       H    10.38255   19.91263  -18.88488
       O     9.92918   19.19309  -18.50673
      H1    10.48212   18.45945  -18.72454
       H    10.79247   10.47035  -14.26150
       O     9.98710   11.02358  -14.13907
      H1     9.55307   10.41164  -13.42310
       H     2.83099   16.72492  -18.31437
       O     3.58626   16.23478  -17.92510
      H1     4.28116   16.86495  -17.77772
       H     6.08644   12.50911  -19.10658
       O     5.64297   11.64306  -19.08429
      H1     6.20941   11.01842  -19.58549
       H     8.04317   19.33186  -18.74660
       O     7.13871   19.68935  -18.75055
      H1     6.92318   19.50233  -19.69374
       H    14.17017   12.34749  -17.90230
       O    14.44635   11.94116  -18.71748
      H1    15.32046   11.62229  -18.59705
       H     6.17925    8.59857  -18.24250
       O     5.81149    9.33941  -17.70906
      H1     5.89965   10.23050  -18.15995
       H    14.30908   18.67488  -15.55938
       O    14.30891   17.76849  -15.12448
      H1    13.70148   17.24847  -15.65349
       H    10.61949   12.86598  -17.01457
       O    11.34293   12.19338  -17.16453
      H1    10.82384   11.58848  -17.69217
       H     8.71145   12.04059  -15.03438
       O     7.87726   12.53693  -15.19343
      H1     7.16785   11.95251  -14.96801
       H    15.77996   15.25782  -19.00359
       O    16.54377   15.38451  -18.40667
      H1    16.86383   14.45610  -18.27510
       H    13.22531   10.54541  -18.86702
       O    12.64980    9.93179  -19.30548
      H1    13.07381    9.09054  -19.40660

