84
frame 9 | Written by MDAnalysis XYZWriter (release 2.4.3)
       H   -10.29530   -8.52105   17.57964
       O   -10.49417   -9.45124   17.38402
      H1   -10.60985   -9.43271   16.45991
       H    -3.71433  -14.63829   17.76154
       O    -4.27683  -15.29662   18.20561
      H1    -4.45291  -14.92578   19.06082
       H    -2.28890  -13.85801   17.17874
       O    -2.92564  -13.81701   16.43496
      H1    -2.56640  -14.14879   15.61601
       H    -2.01385   -9.16686   12.64483
       O    -1.43469   -8.45095   12.40305
      H1    -1.99326   -7.93462   11.65271
       H    -7.16753   -7.64637   15.72397
       O    -7.25222   -6.67609   15.67363
      H1    -7.83776   -6.47266   14.91460
       H    -1.96996  -11.60827   13.37427
       O    -2.11728  -10.72732   13.73784
      H1    -1.47793  -10.48409   14.41818
       H    -4.93439  -10.99639   15.59667
       O    -4.63644  -10.33382   14.93559
      H1    -3.80145  -10.69156   14.62745
       H    -1.12225   -7.72116   16.55647
       O    -1.73186   -8.52337   16.59694
      H1    -2.45150   -8.31184   15.99129
       H    -0.04443  -11.28179   16.16697
       O    -0.33913  -10.55257   15.58341
      H1    -0.98640  -10.10730   16.13908
       H    -6.83521   -7.62421   18.69215
       O    -6.45650   -8.50757   18.42350
      H1    -6.87291   -8.78740   17.61873
       H    -1.97087   -4.24864   14.67632
       O    -2.27236   -4.91323   15.26400
      H1    -3.20260   -4.93648   15.32933
       H    -5.62753  -11.45174   11.74189
       O    -5.81900  -10.70422   12.31965
      H1    -5.27586  -10.69266   13.10872
       H    -3.66710   -2.33276   19.48950
       O    -4.11817   -3.10286   19.86023
      H1    -3.66776   -3.83067   19.47754
       H     1.91216   -8.08814   19.42901
       O     1.33014   -8.64669   18.90896
      H1     1.49657   -8.25404   18.00387
       H    -2.86345   -8.65175   18.01149
       O    -3.55088   -8.89517   18.62477
      H1    -4.37386   -8.55940   18.19862
       H    -6.78731  -10.02370   15.18344
       O    -7.22246   -9.35722   15.76034
      H1    -8.04958   -9.15842   15.30712
       H    -1.84076   -5.73654   18.78651
       O    -2.35727   -4.97751   18.36312
      H1    -1.91508   -4.73105   17.52776
       H    -0.70870   -5.45009   16.02319
       O    -0.20217   -6.09779   16.55592
      H1     0.66562   -5.95677   16.19639
       H    -8.85234   -4.78575   17.48487
       O    -8.09855   -5.32235   17.88227
      H1    -7.56323   -5.68782   17.18552
       H    -9.78391   -7.58975   19.63928
       O    -9.99324   -7.09036   18.83280
      H1    -9.16170   -6.58236   18.55984
       H    -6.12354   -2.95817   15.92944
       O    -5.96282   -3.35101   16.81250
      H1    -5.24537   -2.76076   17.13525
       H    -5.37825  -12.17075   17.76544
       O    -5.99094  -11.96435   17.03543
      H1    -5.97621  -12.80339   16.50852
       H    -4.73858   -6.72815   16.46913
       O    -4.39513   -7.37935   15.72882
      H1    -5.00427   -8.11249   15.79278
       H    -4.08624   -5.47145   17.78403
       O    -5.00670   -5.56668   17.46004
      H1    -5.39671   -4.68346   17.27363
       H    -5.37535   -5.60451   13.29491
       O    -4.45953   -5.92232   13.30689
      H1    -4.39330   -6.52016   14.06397
       H    -8.89595  -10.33189   17.67047
       O    -8.44028  -11.14724   17.96351
      H1    -7.70869  -11.25393   17.34845
       H     2.37118   -5.23992   17.80108
       O     1.67973   -4.80978   18.36083
      H1     0.86515   -5.33818   18.25435
       H     1.10835   -9.23020   16.12888
       O     1.73211   -8.56885   16.28345
      H1     1.86596   -8.16188   15.40603

