84
frame 9 | Written by MDAnalysis XYZWriter (release 2.4.3)
       H    15.16119    6.41807   -6.74303
       O    14.32973    6.81282   -7.10484
      H1    14.06081    7.38087   -6.37956
       H    12.40085    9.55473  -13.54718
       O    12.65683   10.27905  -14.14831
      H1    12.85531   10.95529  -13.55279
       H    17.68935   13.89729   -5.04960
       O    16.84651   14.11123   -4.64444
      H1    16.38281   13.23766   -4.65224
       H    15.90793   11.45613   -3.99481
       O    15.28099   12.01488   -4.48881
      H1    14.43719   11.96082   -4.01991
       H    14.15503   11.83202  -10.70572
       O    13.98899   12.10849  -11.61553
      H1    13.56430   12.97502  -11.55353
       H    15.65658   12.04977  -12.15082
       O    16.56665   11.85105  -12.40484
      H1    17.09042   12.25173  -11.70410
       H    14.51196    7.65354   -8.50260
       O    14.39165    8.11027   -9.35740
      H1    14.09126    9.04091   -9.20108
       H    10.24177   13.00419   -6.84523
       O    11.12650   12.78755   -7.25494
      H1    11.11808   13.21421   -8.10508
       H    17.75788   10.66157   -8.50693
       O    18.14166   10.43999   -9.32454
      H1    17.49266    9.85897   -9.84102
       H     9.84101   13.20617  -10.47119
       O    10.26586   12.79507  -11.18919
      H1    10.36406   11.81927  -11.05820
       H    12.73433   10.37191   -9.66936
       O    13.68398   10.56235   -9.55852
      H1    13.84204   10.83988   -8.67168
       H    13.41184    7.43353  -12.18941
       O    12.62298    7.84502  -12.66164
      H1    11.88424    7.58184  -12.05246
       H    18.15952   10.76488   -6.34806
       O    17.51817   11.34352   -6.70719
      H1    16.70979   11.20414   -6.22078
       H    10.60177   10.08209   -9.75861
       O    11.24232   10.18266  -10.49911
      H1    11.18761    9.25105  -10.88865
       H    14.34851   12.07306   -6.83155
       O    13.70428   11.38278   -7.09847
      H1    12.79819   11.73424   -7.01620
       H    11.60249   14.78331   -9.95317
       O    10.82033   14.88832   -9.40041
      H1    11.20479   15.37727   -8.63832
       H    18.69559   11.70499  -10.17597
       O    18.73366   12.42419  -10.84568
      H1    19.62794   12.48194  -11.22645
       H     9.64731    9.68806   -7.35519
       O     9.43787    9.64194   -8.30988
      H1     8.80041    8.89310   -8.33118
       H    15.89102    8.12999  -12.21910
       O    15.54264    7.43309  -12.80630
      H1    15.06352    7.83884  -13.58243
       H     9.72966    7.14111  -11.23417
       O    10.57049    7.46952  -10.86441
      H1    10.88764    6.86974  -10.13884
       H    15.57342    8.65135  -10.28764
       O    16.33486    9.04078  -10.74963
      H1    16.05807    9.88254  -11.16073
       H    15.59231   14.26934   -6.05689
       O    15.32357   13.97909   -6.92388
      H1    16.00329   14.43391   -7.47492
       H    13.70239    9.73055   -5.90770
       O    13.27691    9.01918   -5.37345
      H1    12.37041    9.22852   -5.36430
       H     7.31668   12.11880   -7.93797
       O     8.19421   12.01543   -8.30597
      H1     8.47102   11.12729   -8.25496
       H    11.59675   13.76984  -11.70823
       O    12.39519   14.22435  -11.91076
      H1    12.21371   15.00284  -12.43077
       H    13.12876    6.82207   -9.07431
       O    12.40882    6.20621   -9.18562
      H1    12.72250    5.68246   -9.93814
       H     9.96398    9.03153   -5.06410
       O    10.40595    9.68356   -5.69194
      H1    10.61009   10.36469   -5.05170
       H    13.61014   14.97681   -6.94536
       O    12.70747   15.32258   -6.98963
      H1    12.15776   14.57125   -6.77351

