84
frame 9 | Written by MDAnalysis XYZWriter (release 2.4.3)
       H    -6.59910   -8.21602    4.30605
       O    -6.33513   -7.63418    5.07476
      H1    -7.18691   -7.51902    5.53439
       H    -6.97358  -10.47630    1.37124
       O    -7.10054  -11.32503    0.81624
      H1    -7.31593  -11.09470   -0.12003
       H    -7.74641   -7.59124    9.57648
       O    -8.68375   -7.73950    9.61388
      H1    -8.94238   -8.60494    9.90676
       H   -12.79541   -7.65600    9.22935
       O   -13.59281   -8.21073    9.45277
      H1   -14.39921   -7.70549    9.25546
       H    -8.53371  -11.85756    6.18855
       O    -9.06604  -11.68961    5.37226
      H1    -9.85624  -12.25004    5.47111
       H    -9.78001   -7.51010    2.08418
       O   -10.02639   -8.39437    2.41987
      H1   -10.46259   -8.93638    1.74197
       H    -9.91130  -10.62047    9.90749
       O    -9.11490  -10.22164   10.25461
      H1    -8.50765  -10.61468    9.62177
       H   -11.89819   -5.13494    3.25461
       O   -12.37286   -4.83168    4.03994
      H1   -11.86974   -5.11205    4.85682
       H   -10.21534   -5.32614    8.27350
       O    -9.63933   -4.65202    7.92645
      H1    -9.28956   -4.98876    7.10917
       H    -4.44546  -10.70871    4.13934
       O    -4.18045   -9.92350    3.55936
      H1    -3.29907  -10.15609    3.25331
       H    -5.15203   -6.92504    3.96151
       O    -4.26605   -6.49231    3.77118
      H1    -4.45146   -5.99374    2.96762
       H    -8.38946   -7.09335    0.41480
       O    -8.66537   -6.50915    1.11782
      H1    -7.90108   -6.25150    1.71398
       H   -12.20742  -10.76313    2.39786
       O   -12.37789  -10.95524    1.45947
      H1   -12.32358  -11.92069    1.31529
       H    -5.52860   -7.80517    9.66926
       O    -6.00909   -7.28349    8.96521
      H1    -5.69892   -7.72819    8.12490
       H   -11.32343   -9.83771    4.22930
       O   -12.27734   -9.89170    4.17827
      H1   -12.60364   -9.09035    4.55181
       H    -9.21777  -10.01043    5.08819
       O    -9.52041   -9.09806    5.09571
      H1    -9.62684   -8.78940    4.11653
       H   -14.52462   -7.83951    6.07977
       O   -13.77936   -8.36314    6.45222
      H1   -13.88929   -8.33699    7.37793
       H   -10.88947   -7.09065    6.30852
       O   -11.70160   -6.50194    6.29671
      H1   -12.38405   -7.17441    6.20148
       H    -3.85900   -9.06169    6.50672
       O    -4.79169   -9.12360    6.76931
      H1    -5.37138   -8.66575    6.14421
       H   -11.86324   -6.29251    1.27637
       O   -11.39303   -5.50492    1.63846
      H1   -10.48109   -5.68643    1.39352
       H    -6.51646   -5.19140    2.81115
       O    -7.32991   -5.41503    3.21649
      H1    -7.40458   -4.84511    3.97060
       H   -11.74062   -6.43593    7.92542
       O   -11.47481   -6.37127    8.83548
      H1   -12.18663   -5.76825    9.15832
       H   -12.07935  -12.95525    6.71918
       O   -11.38643  -13.00773    6.01678
      H1   -11.69383  -13.61241    5.33267
       H   -15.58962  -10.29947    6.76974
       O   -14.78555  -10.75936    6.47956
      H1   -14.21054   -9.99827    6.27638
       H    -5.12914  -12.28635    5.64394
       O    -5.63405  -11.92217    4.88878
      H1    -5.81480  -12.69351    4.28080
       H    -7.59411  -12.64853    7.97747
       O    -7.60942  -11.69455    7.78701
      H1    -6.73193  -11.53240    7.41232
       H    -5.46047   -9.31451    1.87085
       O    -6.30703   -8.88596    2.09155
      H1    -6.47642   -8.33032    1.35681
       H    -8.97885   -7.51654    7.87478
       O    -8.82542   -7.26834    6.93346
      H1    -9.15527   -7.99999    6.45881

