84
frame 8 | Written by MDAnalysis XYZWriter (release 2.4.3)
       H     7.70135   10.97117   -1.69117
       O     6.78579   10.75873   -1.85726
      H1     6.60523   11.05103   -2.74943
       H    15.98757   11.24699   -3.83563
       O    15.69063   11.56822   -4.69290
      H1    15.00241   10.91585   -4.93610
       H    10.51890   11.09015   -7.82664
       O    10.90364   11.87626   -7.38833
      H1    10.54947   12.64748   -7.89486
       H     7.49458   12.31968   -5.62486
       O     8.27967   12.78606   -5.24378
      H1     7.97550   13.48989   -4.64300
       H    10.51555    8.00959   -2.83370
       O    11.16612    8.52291   -2.32405
      H1    10.67446    8.74214   -1.51293
       H    10.97985   11.40864   -3.94192
       O    10.11765   11.07358   -3.98912
      H1     9.63023   11.79709   -4.56142
       H    12.07237   11.58403   -2.38876
       O    12.62234   10.82977   -2.61946
      H1    11.98077   10.13663   -2.74388
       H     8.57324   14.80759    0.01792
       O     8.12312   14.04839   -0.39606
      H1     8.62075   13.25938   -0.16962
       H    14.45193   12.05368   -7.86696
       O    13.71885   11.42132   -7.86266
      H1    12.96345   11.86857   -7.50339
       H     8.20546    7.94180   -1.62796
       O     8.67328    7.71848   -0.80469
      H1     8.22211    6.99307   -0.32663
       H     5.15409   11.62645   -3.73584
       O     5.22278   10.72597   -4.05243
      H1     4.32350   10.35067   -4.15113
       H    12.38328   15.17556   -0.11598
       O    12.53737   14.59993   -0.89436
      H1    11.69204   14.69678   -1.43894
       H    10.25261    8.91293   -6.95913
       O    10.02404    9.05367   -7.88760
      H1     9.18471    8.59023   -8.10496
       H     6.44267   14.38218   -3.62842
       O     7.23014   14.96444   -3.95266
      H1     6.87397   15.75651   -4.40512
       H     9.92648   14.54615   -3.14519
       O    10.06720   14.50097   -2.18678
      H1     9.23881   14.24662   -1.74440
       H     5.70791   10.37317   -7.16648
       O     6.36081   10.73142   -6.48771
      H1     5.94355   10.81356   -5.63171
       H     9.53240   11.21496   -2.31632
       O     9.16479   11.59429   -1.49319
      H1     9.90489   11.69830   -0.84821
       H    13.91286   10.18170   -6.55869
       O    13.97925    9.82471   -5.70546
      H1    13.08788    9.79326   -5.37411
       H    10.67487   14.16436   -5.44543
       O    11.02356   14.67108   -4.75146
      H1    10.95800   15.57122   -5.07761
       H     6.05389    8.16771   -5.58148
       O     7.01069    8.29869   -5.65323
      H1     7.00125    9.18581   -6.01752
       H     7.55830   16.20815   -6.90730
       O     7.95607   15.35764   -6.87280
      H1     7.86429   15.05381   -5.98342
       H     6.32322    8.64842   -2.59799
       O     6.86350    7.95011   -3.05605
      H1     6.98596    8.15547   -3.99674
       H     7.84487   11.65211   -8.82825
       O     8.52757   11.09692   -9.23180
      H1     8.86305   10.38416   -8.66236
       H    12.07746   12.25021    0.93656
       O    11.37355   12.38857    0.29208
      H1    11.75024   13.14989   -0.20173
       H    13.52440   10.07797   -0.94263
       O    14.39490    9.98820   -0.51806
      H1    14.61962    9.04900   -0.61909
       H    10.77017    7.81575   -5.08460
       O    11.04527    8.68935   -5.49549
      H1    10.50026    9.29770   -4.89649
       H     9.68722    6.13789   -3.42671
       O     9.40272    6.92973   -3.88367
      H1     8.59653    7.19922   -3.45027
       H    14.10004   15.00342   -6.47550
       O    13.26192   15.45010   -6.60477
      H1    12.68136   15.17096   -5.88347

