84
frame 9 | Written by MDAnalysis XYZWriter (release 2.4.3)
       H   -18.23847    1.06519   -5.45276
       O   -17.59456    1.78052   -5.70973
      H1   -17.04708    1.46344   -6.46556
       H   -17.17060   -0.18091  -10.22340
       O   -16.23899   -0.29118  -10.48962
      H1   -15.70944    0.23558   -9.90501
       H   -13.04945    1.79092   -5.87832
       O   -12.16106    2.19618   -5.77956
      H1   -11.55582    1.58992   -6.07410
       H   -11.49674   -1.63113   -9.93302
       O   -11.00447   -0.75257  -10.03872
      H1   -10.72478   -0.65600  -10.97220
       H   -15.67685   -1.95208  -11.46611
       O   -15.16549   -2.69776  -11.82308
      H1   -15.74527   -3.24346  -12.42395
       H    -8.82144   -0.10670   -7.96440
       O    -8.91528   -0.90223   -8.52939
      H1    -9.69332   -0.87572   -9.04976
       H   -14.27630   -3.44650   -4.78205
       O   -15.06322   -3.84680   -5.19567
      H1   -15.44304   -4.19545   -4.38125
       H   -15.77684   -3.37117   -8.85689
       O   -15.26195   -4.03597   -9.35669
      H1   -15.20818   -3.55754  -10.20595
       H   -15.90388   -2.80904   -6.41146
       O   -16.10098   -2.37029   -7.22793
      H1   -15.73674   -1.44522   -7.09887
       H   -14.48640    1.80993  -11.57670
       O   -14.41918    2.48158  -10.89133
      H1   -14.85411    3.22430  -11.26037
       H   -13.45123    1.59985   -9.32208
       O   -12.89412    1.22917   -8.57517
      H1   -12.03110    1.04533   -9.01187
       H   -15.87760    2.14717   -4.74449
       O   -14.91833    2.19593   -4.58456
      H1   -14.61394    2.87263   -5.16347
       H   -13.62453   -6.36534   -7.32753
       O   -13.44744   -6.13915   -6.39648
      H1   -14.08259   -5.39848   -6.27686
       H   -19.44814   -2.51659   -7.09421
       O   -18.85557   -2.30432   -6.31172
      H1   -17.92773   -2.23729   -6.70332
       H   -13.49251    3.11035   -7.38451
       O   -14.32496    3.45188   -7.07627
      H1   -14.46519    4.37958   -7.30135
       H   -13.46531   -0.13812   -3.16330
       O   -14.38073   -0.14141   -3.39287
      H1   -14.59090    0.79888   -3.41244
       H   -15.34669    2.14566   -7.77856
       O   -15.97856    1.46806   -7.97401
      H1   -15.73596    0.76679   -7.32538
       H   -10.30926    1.47562   -1.61599
       O   -10.30755    1.70122   -2.54190
      H1   -10.99123    2.42802   -2.55300
       H   -12.27754   -4.37366   -4.27315
       O   -12.92719   -4.44638   -3.52569
      H1   -12.37210   -4.31256   -2.73663
       H   -13.75010   -0.10843   -6.46226
       O   -14.66216   -0.19288   -6.23981
      H1   -14.61271   -0.10442   -5.28589
       H   -10.31242    0.00522   -4.20296
       O    -9.52042   -0.09075   -4.81453
      H1    -9.46994   -1.06417   -4.97984
       H   -11.66320   -3.29704   -8.44707
       O   -12.23650   -3.17345   -9.24161
      H1   -13.09232   -3.42103   -8.90765
       H    -8.62905   -3.31446   -6.32347
       O    -9.23345   -2.57215   -6.26964
      H1    -9.04039   -2.04221   -7.01048
       H   -12.62772    2.84623   -3.65580
       O   -12.35130    3.49853   -3.01470
      H1   -13.11038    4.07800   -2.72119
       H   -16.34913   -0.90353   -2.00321
       O   -17.21614   -0.58837   -1.63742
      H1   -17.06387    0.34385   -1.45228
       H   -11.11873    0.17484   -2.48709
       O   -11.66083   -0.56556   -2.87377
      H1   -11.84104   -1.09981   -2.09491
       H    -8.37239    0.89916   -6.01164
       O    -7.95723    1.25392   -6.79271
      H1    -7.02548    1.29832   -6.60533
       H   -11.67577   -4.97972   -6.43034
       O   -11.60958   -4.16968   -5.87761
      H1   -10.68169   -3.85410   -5.93143

