84
frame 9 | Written by MDAnalysis XYZWriter (release 2.4.3)
       H     7.14343  -17.99883   14.51654
       O     7.15393  -17.07754   14.31936
      H1     6.24140  -16.78014   14.25769
       H    -1.66337  -17.85907   15.89458
       O    -1.41919  -18.27436   15.05151
      H1    -1.15488  -19.23936   15.30271
       H     0.61763  -11.43991   10.95450
       O     0.61746  -12.40191   11.00951
      H1     0.81018  -12.71418   10.12194
       H     3.28286  -20.02130   12.21250
       O     2.80969  -19.38200   12.72828
      H1     3.32601  -19.35900   13.56859
       H     5.00859  -13.25904   12.58586
       O     5.82006  -13.72265   12.82409
      H1     6.01879  -14.28371   12.06243
       H    -2.28890  -13.85801   17.17874
       O    -2.92564  -13.81701   16.43496
      H1    -2.56640  -14.14879   15.61601
       H    -1.08365  -16.95309   17.84496
       O    -1.83881  -17.02332   17.35411
      H1    -2.29280  -16.24063   17.64066
       H    -0.93821  -14.90424   18.58551
       O    -1.43505  -14.05187   18.55380
      H1    -0.67845  -13.55364   18.17758
       H    -1.96996  -11.60827   13.37427
       O    -2.11728  -10.72732   13.73784
      H1    -1.47793  -10.48409   14.41818
       H    -0.04443  -11.28179   16.16697
       O    -0.33913  -10.55257   15.58341
      H1    -0.98640  -10.10730   16.13908
       H     3.57239  -19.46537   15.61139
       O     4.15274  -18.82591   15.18931
      H1     4.36408  -18.22872   15.92443
       H     0.75584  -16.40304   19.78601
       O     0.22529  -16.18092   19.05095
      H1     0.71581  -16.54810   18.30899
       H     3.30548   -9.65998   16.33580
       O     3.90246  -10.31551   16.01050
      H1     4.69003  -10.27106   16.63841
       H     2.99125  -17.66162   12.15473
       O     2.88498  -16.72957   12.21034
      H1     3.00584  -16.30965   11.31554
       H     5.46156  -16.87497   18.39214
       O     5.98505  -17.59022   18.04188
      H1     5.53049  -18.43068   18.29158
       H    -1.06022  -12.72197   11.77886
       O    -1.80708  -13.06609   12.34066
      H1    -2.65246  -12.86734   11.93675
       H     1.99943  -13.99312   14.92106
       O     1.38231  -14.59283   15.35810
      H1     1.57661  -15.42820   15.00887
       H     1.26286  -18.34626   17.74580
       O     1.52899  -17.55468   17.16958
      H1     1.11283  -17.72532   16.32012
       H     3.59215  -16.00754    9.41586
       O     3.13666  -15.34602    9.95024
      H1     2.88688  -14.64387    9.34854
       H     3.37419  -11.89925   14.89447
       O     3.14000  -12.68156   14.37628
      H1     2.85818  -12.31563   13.52634
       H     6.25241  -12.75532   17.31790
       O     6.34545  -13.70222   17.29935
      H1     5.53229  -14.00229   16.84919
       H     3.11595  -15.65463   17.58818
       O     3.97288  -15.44284   17.15070
      H1     3.89890  -15.77253   16.24444
       H     1.12226  -17.18853   13.44201
       O     0.70616  -17.14365   14.29121
      H1    -0.05569  -17.74593   14.34737
       H     2.17113  -12.21318   11.45424
       O     3.03502  -11.85600   11.76957
      H1     3.63559  -12.06440   11.07268
       H     6.72533  -17.75700   11.30850
       O     5.99423  -17.06717   11.35638
      H1     5.68625  -17.19391   12.25788
       H     5.08078  -14.98529   13.69853
       O     4.68201  -15.72776   14.20277
      H1     3.97916  -15.90215   13.51841
       H    -1.84215  -14.49056   13.48098
       O    -1.93100  -15.10632   14.22836
      H1    -1.05012  -15.27434   14.55480
       H     1.22527  -13.35079   16.71658
       O     0.85974  -12.82154   17.48310
      H1     1.62447  -12.25983   17.73332

