84
frame 11 | Written by MDAnalysis XYZWriter (release 2.4.3)
       H     2.28511   -6.14621   14.47129
       O     3.05591   -6.10386   15.03461
      H1     3.78360   -6.15079   14.37621
       H     0.96936   -7.56377   12.34184
       O     1.25283   -6.74223   12.81405
      H1     1.60069   -6.23787   12.08585
       H    -0.15585  -14.03944   18.61696
       O    -0.54547  -13.16854   18.59675
      H1     0.11168  -12.46719   18.61608
       H    -0.32709   -9.75423   12.44551
       O    -0.02731   -9.00064   11.89679
      H1    -0.75194   -8.59363   11.49253
       H    -6.17634   -8.29707   15.87749
       O    -6.42413   -7.33614   15.88475
      H1    -7.00412   -7.24481   15.14695
       H    -1.17102  -11.45212   13.70244
       O    -1.07835  -10.55530   13.95199
      H1    -0.37030  -10.54935   14.62134
       H     1.45283   -3.09732   15.29643
       O     0.63235   -3.59456   15.27505
      H1    -0.13142   -3.01128   15.50650
       H    -3.16559  -10.92173   15.78925
       O    -3.36265  -10.16219   15.19232
      H1    -2.49878  -10.07796   14.74616
       H    -0.53575   -6.89442   17.56399
       O    -1.05630   -7.70906   17.32627
      H1    -0.77128   -8.06558   16.48240
       H     1.21406  -11.19931   15.99885
       O     0.56874  -10.46948   16.15478
      H1     0.51665  -10.43951   17.09809
       H    -5.09846   -7.86377   17.99264
       O    -5.32270   -8.70925   18.35828
      H1    -5.96449   -9.10629   17.83224
       H    -0.57980   -3.50636   12.22551
       O     0.39223   -3.36990   12.38529
      H1     0.44371   -3.52399   13.35911
       H    -1.66166   -1.49506   14.53568
       O    -2.06580   -1.93938   15.29280
      H1    -3.05964   -2.04774   15.20397
       H     3.92166  -10.37566   16.77449
       O     4.23548  -11.30501   16.74098
      H1     4.85066  -11.40402   17.53397
       H     2.75654   -6.46529   18.40439
       O     2.12506   -7.10836   18.64810
      H1     1.41592   -6.50743   18.90995
       H    -2.16785   -9.10777   18.20249
       O    -2.70932   -9.41086   18.97803
      H1    -3.64268   -9.26235   18.69006
       H     4.47829   -8.40718   19.16031
       O     4.67195   -8.39964   18.22097
      H1     3.84664   -8.12412   17.75188
       H    -4.51752   -2.76421   13.89993
       O    -4.55166   -3.19930   14.77453
      H1    -5.39517   -2.91365   15.14709
       H     1.66461   -8.81822   18.76345
       O     1.42382   -9.73771   18.77606
      H1     2.19141  -10.27258   19.12357
       H     3.49060   -5.04983   16.87216
       O     3.79062   -5.20489   17.80366
      H1     4.76477   -5.28300   17.77345
       H    -1.36559   -4.15553   18.02151
       O    -2.29291   -3.69778   17.98354
      H1    -2.29205   -3.38994   17.06201
       H     0.50517   -4.73282   18.98042
       O     0.06841   -5.03061   18.17188
      H1     0.75279   -4.89884   17.52283
       H    -3.57128   -6.84491   16.03568
       O    -3.38384   -7.25436   15.14752
      H1    -3.31171   -8.25170   15.22967
       H    -3.37863   -5.37093   17.59919
       O    -4.04131   -6.05267   17.48441
      H1    -4.83188   -5.58550   17.19687
       H    -5.11543   -6.07899   13.05477
       O    -4.81272   -7.00284   13.00015
      H1    -4.32456   -7.16231   13.80404
       H     3.89450   -3.15436   18.73086
       O     3.80996   -2.57987   19.47157
      H1     3.14614   -3.01877   20.03416
       H     1.96082   -9.14535   16.24035
       O     2.85091   -8.74014   16.09798
      H1     2.79557   -7.80296   15.96445
       H    -2.06059  -12.91341   15.80644
       O    -2.30939  -12.46469   16.62863
      H1    -1.86827  -12.84540   17.38189

