84
frame 10 | Written by MDAnalysis XYZWriter (release 2.4.3)
       H    14.45546    4.19819  -18.72865
       O    15.04021    4.88990  -19.07694
      H1    15.63279    4.38382  -19.65654
       H    14.18376    1.27035  -15.03557
       O    14.43617    0.93508  -15.88611
      H1    15.33229    0.49828  -15.74186
       H    13.46039    2.14057  -18.82951
       O    14.03672    2.47989  -18.14841
      H1    14.01603    1.93876  -17.33251
       H    18.76905   -3.13373  -10.76991
       O    19.69786   -2.99346  -10.47432
      H1    20.16700   -3.83860  -10.43748
       H    12.77489    3.52809  -12.04967
       O    13.20467    4.33458  -12.30497
      H1    14.15024    3.96841  -12.36755
       H    10.72293    0.08202  -17.63103
       O    11.45155   -0.09803  -17.06287
      H1    11.39849   -1.08095  -16.98519
       H    15.12559   -5.17203  -13.67369
       O    14.50700   -5.31330  -14.41651
      H1    13.58996   -5.49209  -14.11964
       H    17.80966   -0.21754  -14.64907
       O    17.35704    0.42830  -15.20607
      H1    17.98280    0.56967  -15.92260
       H    14.31358   -2.02506  -18.22627
       O    13.44979   -1.63669  -18.47254
      H1    13.20515   -1.02827  -17.74861
       H    15.58189   -3.72411  -14.75750
       O    15.66576   -2.75651  -14.82572
      H1    15.78362   -2.57397  -15.75113
       H    10.77591   -2.85097  -13.21330
       O    11.68472   -3.12382  -13.26096
      H1    12.09850   -2.31071  -13.56880
       H    19.15799   -0.91625  -13.19622
       O    18.61746   -1.54041  -13.69252
      H1    19.22561   -2.25769  -13.95841
       H    13.89579   -2.59734  -11.61918
       O    13.46924   -2.25598  -10.79461
      H1    12.90099   -2.93553  -10.34514
       H    15.77586   -3.71648  -17.53068
       O    15.87615   -2.80276  -17.65090
      H1    16.87348   -2.73176  -17.78339
       H    17.35694   -2.65265  -12.45307
       O    17.21513   -3.06826  -11.58150
      H1    16.72873   -2.41407  -11.09189
       H    18.02906    5.27694  -11.95669
       O    18.97768    5.19841  -11.80584
      H1    19.22198    5.11936  -12.73810
       H    16.22318   -1.78802   -9.23966
       O    16.00064   -1.13890   -9.94729
      H1    15.13805   -1.47100  -10.20016
       H    18.95177   -1.71233  -17.07203
       O    18.82148   -2.33702  -17.81169
      H1    18.59589   -1.78154  -18.57512
       H    17.15014    4.09417  -15.90869
       O    17.57188    3.63490  -15.14186
      H1    17.27232    2.67089  -15.23191
       H    13.17790    2.41558  -13.67825
       O    13.28014    1.53162  -13.36864
      H1    13.93337    1.58928  -12.65602
       H    18.62057    3.60334  -11.14850
       O    18.18521    2.74552  -11.04706
      H1    17.33640    2.81141  -11.52405
       H    13.20947    3.62250  -16.40933
       O    12.71573    3.62927  -15.61157
      H1    11.89978    3.18975  -15.89393
       H    15.53553    1.07282  -11.25160
       O    15.19543    1.96919  -11.34515
      H1    14.50795    1.90600  -10.67041
       H    14.29361   -1.96971  -14.47474
       O    13.53434   -1.43341  -14.01294
      H1    13.56616   -0.53617  -14.37405
       H    17.56594    6.04270  -16.95686
       O    16.77481    5.47965  -16.79857
      H1    16.50427    5.26398  -17.73352
       H    15.73658    5.45234  -12.88316
       O    15.96526    4.49007  -12.91561
      H1    16.57435    4.41170  -13.61763
       H    19.71158    0.90336  -17.81854
       O    18.84732    1.07309  -18.22238
      H1    18.94894    1.89459  -18.73241
       H    19.06487    3.43602  -14.44754
       O    19.94396    3.52592  -14.01627
      H1    20.20278    2.65104  -13.67474

