84
frame 10 | Written by MDAnalysis XYZWriter (release 2.4.3)
       H   -12.42898    6.17175   -4.42861
       O   -11.54648    6.21144   -4.01237
      H1   -11.78104    5.92081   -3.17857
       H   -10.09000    3.87480   -5.85567
       O    -9.83482    4.74277   -5.50699
      H1   -10.43314    5.07467   -4.81789
       H   -15.25778    4.86431   -2.21518
       O   -14.61253    5.11295   -1.55737
      H1   -14.47400    6.03932   -1.70725
       H   -13.81098    9.20005   -0.16861
       O   -13.12403    8.67170   -0.59302
      H1   -12.85390    7.94156   -0.03459
       H   -15.07202    7.91335   -2.63004
       O   -14.23478    7.49401   -2.73893
      H1   -13.65395    7.97712   -2.05082
       H   -16.25649    1.94875   -4.19731
       O   -15.39796    2.21214   -4.49013
      H1   -15.66019    2.40780   -5.39023
       H   -17.06047    9.50697   -3.59594
       O   -16.77011    8.69743   -4.04964
      H1   -17.28639    8.56302   -4.88338
       H   -14.98598    3.24555    1.06573
       O   -15.08815    4.19881    0.85862
      H1   -14.80652    4.31361   -0.06526
       H   -15.47965    9.78144    1.33692
       O   -15.09566   10.32596    0.67083
      H1   -15.70388   10.59072   -0.05323
       H   -12.97688    4.87871    2.96316
       O   -13.62477    5.55354    2.79232
      H1   -13.99103    5.15655    2.02498
       H   -10.10081    1.24260   -2.28908
       O   -10.74599    1.46188   -3.00698
      H1   -11.34497    2.16332   -2.71539
       H   -17.30866    5.63806   -3.29039
       O   -16.69224    4.96968   -3.42442
      H1   -16.55505    4.89631   -4.43594
       H   -19.34915    5.03969   -1.34995
       O   -19.19785    5.95737   -1.58452
      H1   -19.80467    6.14891   -2.33081
       H   -11.45813    3.39972    0.78909
       O   -11.47880    3.15443   -0.09777
      H1   -11.39093    3.99349   -0.61957
       H   -11.54200    9.53102   -3.70899
       O   -11.05400    8.87376   -4.24411
      H1   -11.28222    7.97399   -4.04236
       H   -12.55836    0.01489   -0.28676
       O   -12.85446    0.77705    0.19807
      H1   -12.45807    1.51268   -0.28055
       H   -13.62481    3.63825   -3.74472
       O   -12.78270    3.71382   -3.22759
      H1   -13.08927    4.09591   -2.39055
       H   -15.36975    0.38579   -2.51464
       O   -15.79049    0.43425   -1.62869
      H1   -16.34899    1.23317   -1.55395
       H   -14.44647    8.39935    2.21848
       O   -15.36291    8.52132    2.56544
      H1   -15.95905    7.94135    2.09045
       H   -16.29677    5.67980   -6.37124
       O   -16.35957    4.74612   -6.23801
      H1   -17.32669    4.61196   -6.28896
       H   -17.37592    3.15220   -2.37721
       O   -17.77320    2.24944   -2.25614
      H1   -17.94910    1.89943   -3.13540
       H   -18.48310    8.78523    0.31146
       O   -17.90445    8.21887   -0.23518
      H1   -18.43198    7.52108   -0.60557
       H   -10.07850   10.29095   -0.17992
       O   -11.01068   10.52583   -0.04942
      H1   -11.49976    9.63971   -0.11784
       H   -12.56407    6.77261    1.61551
       O   -11.84701    6.75409    0.93761
      H1   -11.07901    7.19102    1.35479
       H   -10.10723    5.76855   -1.39816
       O   -11.02506    5.66890   -1.38186
      H1   -11.22449    5.99526   -0.50868
       H   -17.35335    9.97912   -1.15687
       O   -16.72413   10.41893   -1.64583
      H1   -17.07100   11.24807   -1.90891
       H   -16.53405    5.76607    0.83187
       O   -16.98036    6.36026    1.42540
      H1   -17.40330    7.01546    0.86391
       H   -13.40321    6.97921   -6.19341
       O   -13.61981    6.20656   -5.66412
      H1   -14.42422    6.60142   -5.25125

