84
frame 10 | Written by MDAnalysis XYZWriter (release 2.4.3)
       H   -10.29443    8.55544  -10.95782
       O    -9.65235    8.28093  -11.63468
      H1    -9.95690    7.38547  -11.86865
       H    -8.37331   11.96051  -12.66979
       O    -8.61633   12.82820  -12.97498
      H1    -9.08865   13.18314  -12.24232
       H    -4.18075   13.52840  -10.43675
       O    -4.17443   12.60774  -10.70737
      H1    -3.96685   12.56811  -11.64483
       H    -6.29792   15.76346  -16.26785
       O    -5.45469   15.30426  -16.17382
      H1    -4.95799   15.45922  -16.95072
       H    -8.91281    7.90898  -16.04982
       O    -8.36617    8.69414  -15.82953
      H1    -8.31323    9.22395  -16.65602
       H   -10.75573   17.42794  -10.46193
       O   -11.27265   17.65938  -11.24249
      H1   -10.62850   17.62941  -11.94699
       H    -5.98146   13.47575  -16.19638
       O    -6.34806   12.64647  -16.50855
      H1    -6.04488   11.89072  -15.98149
       H   -11.09358   15.64484  -13.58653
       O   -11.25862   14.67011  -13.34130
      H1   -10.81622   14.11491  -13.99566
       H    -6.60840   14.11070  -10.88440
       O    -7.17501   14.74528  -10.45533
      H1    -6.70064   14.98930   -9.67560
       H    -8.46196   16.97690  -12.21838
       O    -8.37110   17.55533  -11.42871
      H1    -8.32244   17.07370  -10.61846
       H   -12.90784   13.85585  -13.65760
       O   -13.62578   13.26369  -13.47863
      H1   -14.40714   13.70525  -13.81965
       H    -7.03546   10.11165  -11.28296
       O    -7.58891   10.37519  -11.98901
      H1    -8.35954    9.78191  -11.87593
       H    -4.42801   11.26987  -13.87435
       O    -4.16217   12.14894  -13.54004
      H1    -4.99838   12.65512  -13.56809
       H   -10.48032    9.60835  -13.72145
       O   -10.38022   10.04053  -14.59177
      H1    -9.62141    9.66177  -14.98781
       H    -7.43065   16.96855  -14.39463
       O    -8.11038   16.31325  -14.15645
      H1    -8.21806   15.76583  -14.94380
       H    -8.45865   14.46000  -16.97445
       O    -8.47351   14.21627  -16.06774
      H1    -7.67145   13.67920  -16.04621
       H   -11.65164   12.64759  -16.62210
       O   -12.19153   12.98232  -17.42256
      H1   -12.82749   12.23098  -17.58563
       H    -8.15696   13.10555  -18.56518
       O    -7.37373   12.60887  -18.82857
      H1    -6.75913   12.54513  -17.99059
       H   -10.23711   12.22612   -8.93382
       O   -10.28747   11.79995   -8.03785
      H1   -11.10771   12.15867   -7.73013
       H    -7.16198   13.98778  -13.23221
       O    -6.19433   14.21332  -13.33826
      H1    -6.21598   15.20161  -13.35019
       H    -6.92603    9.22606  -13.19415
       O    -6.44530    8.71988  -13.80734
      H1    -7.17741    8.54570  -14.43259
       H   -10.97173   16.52478  -15.26025
       O   -11.09564   17.07171  -14.42886
      H1   -12.02798   17.37399  -14.33391
       H    -5.27857    9.34432   -9.68214
       O    -6.14470    9.80803   -9.67304
      H1    -6.76623    9.23873   -9.17000
       H   -12.66158    8.95032  -16.78411
       O   -11.90295    9.48256  -16.95566
      H1   -11.47038    9.51574  -16.07043
       H    -3.86421    9.93572  -15.09616
       O    -4.72745   10.22434  -15.46169
      H1    -5.31589    9.77904  -14.88844
       H   -11.78062   14.79515  -11.41860
       O   -12.11880   14.89156  -10.52983
      H1   -11.96182   15.80623  -10.40639
       H    -9.59230   12.77090  -15.33760
       O   -10.59934   12.61473  -15.24444
      H1   -10.70078   11.75917  -14.73599
       H   -10.39047   13.96119   -9.98533
       O    -9.68178   13.36792  -10.31924
      H1    -8.88532   13.87210  -10.00432

