84
frame 10 | Written by MDAnalysis XYZWriter (release 2.4.3)
       H    16.83524  -18.19336  -14.37039
       O    16.63800  -17.34868  -13.96634
      H1    16.07799  -17.50985  -13.19806
       H    14.68997  -17.24299   -6.44581
       O    13.78134  -17.62531   -6.19592
      H1    13.09076  -17.10992   -6.65328
       H    15.12506  -12.63173  -15.76190
       O    14.62227  -13.44056  -15.45644
      H1    15.08117  -14.14814  -15.88683
       H    15.73125  -15.86608   -7.01566
       O    16.29772  -16.56911   -6.65988
      H1    16.55651  -17.18642   -7.33528
       H    12.35165  -16.28212  -15.23330
       O    12.47624  -16.85688  -15.98950
      H1    12.69616  -17.81083  -15.85462
       H    19.06218  -18.33447  -11.90749
       O    19.62216  -19.06352  -11.49171
      H1    19.04489  -19.61487  -10.98652
       H    10.83506  -12.85421  -10.81462
       O     9.95453  -12.68909  -10.40300
      H1     9.51271  -13.50033  -10.67353
       H    14.88612  -11.60231   -9.15831
       O    15.17049  -12.13954   -8.45210
      H1    16.04522  -12.45215   -8.55731
       H    14.38781  -16.43634  -16.14690
       O    15.35887  -16.31916  -16.17936
      H1    15.71060  -16.57589  -15.30079
       H    12.30339  -18.81559  -10.67084
       O    12.08890  -17.99722  -11.19274
      H1    12.11994  -17.25549  -10.55930
       H    13.00453   -9.67662  -10.10124
       O    13.66474  -10.41414  -10.09357
      H1    13.31694  -11.09889  -10.70061
       H     9.11020  -19.15138   -8.47452
       O     9.98961  -18.79517   -8.37673
      H1    10.53346  -19.58641   -8.22829
       H    10.41476  -17.14750   -7.16009
       O    10.83202  -16.34536   -6.93330
      H1    10.15892  -15.65725   -6.95210
       H    13.90276  -17.46538  -11.92118
       O    14.79101  -17.06434  -11.98408
      H1    14.57397  -16.17251  -12.33089
       H    12.94405  -15.09050   -9.11043
       O    12.28494  -15.50023   -9.68700
      H1    11.56047  -15.82131   -9.12773
       H    13.84017  -14.60131   -7.12402
       O    14.25692  -14.56044   -8.00619
      H1    14.50751  -13.60202   -8.19519
       H     8.81308  -15.47969  -12.10716
       O     9.13955  -15.10923  -11.30849
      H1     8.53380  -15.40976  -10.61583
       H    12.19747  -14.08223  -10.63541
       O    12.52854  -13.33726  -11.20853
      H1    13.15160  -13.80574  -11.78929
       H    17.07108  -16.71178  -17.40870
       O    17.82944  -16.60703  -17.97056
      H1    18.48892  -16.34961  -17.27042
       H    15.51974  -16.37733   -9.84965
       O    16.45048  -16.17540   -9.75389
      H1    16.85355  -17.03895   -9.46523
       H    10.70471  -16.89412  -16.30186
       O     9.80791  -16.95058  -16.52604
      H1     9.53534  -16.42386  -17.30724
       H    10.66903  -18.10484  -12.13595
       O     9.96533  -18.49187  -12.72727
      H1    10.45676  -18.78987  -13.53211
       H    11.56102  -15.01192  -13.28710
       O    12.31548  -15.15135  -13.88301
      H1    12.83562  -14.33683  -13.83193
       H    15.69328  -14.27644  -12.31099
       O    14.79158  -14.29573  -12.59287
      H1    14.86451  -14.12882  -13.55549
       H    13.18286  -13.81999  -16.55039
       O    12.66416  -14.30965  -17.20053
      H1    12.64564  -15.20747  -16.79877
       H    17.55532  -18.98122   -7.74394
       O    17.15657  -18.50879   -8.45890
      H1    16.52617  -19.12753   -8.74581
       H    16.95372  -15.73098  -11.45415
       O    17.35363  -15.38408  -12.25446
      H1    17.33126  -16.12599  -12.93672
       H     9.17016  -17.08062  -13.37404
       O     8.72809  -16.24436  -13.73192
      H1     8.99739  -16.23392  -14.69958

