84
frame 10 | Written by MDAnalysis XYZWriter (release 2.4.3)
       H   -15.98576  -17.77016   15.79372
       O   -16.52616  -17.95801   15.03117
      H1   -16.28422  -18.86371   14.68596
       H   -10.06300  -18.85193   16.85601
       O   -10.48921  -19.68754   16.70237
      H1   -10.00897  -20.20016   16.07558
       H   -12.16761  -12.33249   13.13571
       O   -12.32590  -13.18129   12.62498
      H1   -13.17774  -13.57844   12.89377
       H    -6.21831  -16.77008   12.99848
       O    -6.25355  -15.84425   13.25290
      H1    -5.52761  -15.39161   12.72739
       H   -15.55721  -18.04229   11.69801
       O   -16.26645  -17.72589   12.23926
      H1   -15.98480  -17.63668   13.14780
       H   -13.94786  -20.24694   17.63658
       O   -14.51346  -19.51645   17.68235
      H1   -14.11336  -18.87842   17.14071
       H    -5.89379  -19.48070   13.89248
       O    -5.99444  -18.84249   13.20738
      H1    -6.78849  -19.17632   12.73786
       H    -9.92172  -14.69619    6.77901
       O    -9.79409  -15.58234    7.12835
      H1   -10.34003  -15.74081    7.92699
       H   -12.47953  -19.04083    6.82289
       O   -11.84115  -18.32507    6.90110
      H1   -11.80079  -17.80699    6.02900
       H   -11.95835  -14.51941   16.23379
       O   -12.34147  -14.20889   17.08340
      H1   -11.67779  -14.30603   17.77537
       H   -11.90029  -16.21790   11.42283
       O   -12.03922  -16.74797   12.18983
      H1   -11.81502  -16.19345   12.96996
       H    -8.55549  -15.74897   15.68038
       O    -8.94072  -16.10006   14.88960
      H1    -8.21534  -16.00233   14.26247
       H   -15.33770  -14.44315   12.50180
       O   -14.79046  -14.02795   13.17760
      H1   -14.91903  -14.41351   14.04448
       H    -8.37511  -15.94275   10.46797
       O    -8.16578  -16.80549   10.17546
      H1    -8.58294  -16.98380    9.35085
       H   -13.08118  -17.28585    7.87526
       O   -13.79704  -16.97246    8.43513
      H1   -14.07123  -17.86811    8.81831
       H   -11.48851  -14.30004   13.83236
       O   -11.46161  -15.03783   14.42844
      H1   -10.50228  -15.09804   14.62759
       H   -19.44800  -19.34872   15.20532
       O   -19.21802  -18.74948   14.47359
      H1   -18.30375  -18.58748   14.36382
       H   -10.18271  -16.25918   17.63650
       O   -10.46603  -16.99993   17.12021
      H1   -10.02148  -16.86739   16.29190
       H   -10.70469  -14.36852   10.05966
       O   -10.61770  -13.44026   10.41403
      H1   -11.29178  -13.34234   11.12611
       H    -8.96779  -13.83199   11.61463
       O    -8.36623  -14.62234   11.54371
      H1    -7.99523  -14.83938   12.39830
       H   -13.52166  -16.83878   15.51478
       O   -13.21464  -17.72276   15.80414
      H1   -12.35263  -17.72067   16.28422
       H   -15.94974  -18.71293    9.68730
       O   -15.05549  -18.65973   10.06823
      H1   -14.82396  -19.52631   10.33298
       H    -7.07004  -19.96819   10.72230
       O    -7.80341  -19.42590   11.13068
      H1    -7.90369  -18.55127   10.60555
       H   -19.09683  -16.87743   11.19033
       O   -18.92378  -17.81910   11.37477
      H1   -18.02364  -17.82921   11.68826
       H   -10.23074  -16.37879   10.40737
       O   -10.91581  -16.08384    9.79795
      H1   -11.52761  -16.81707    9.57521
       H   -12.56480  -18.86845   14.41832
       O   -12.39604  -19.25446   13.51022
      H1   -12.33234  -18.45673   12.99551
       H   -17.47414  -14.80912   11.13111
       O   -16.53623  -14.97919   11.31365
      H1   -16.55915  -15.85959   11.72187
       H   -13.81524  -14.76574   16.20848
       O   -14.55326  -15.14335   15.65021
      H1   -15.19057  -15.48486   16.24782

