84
frame 11 | Written by MDAnalysis XYZWriter (release 2.4.3)
       H    19.33862  -11.14738   12.52902
       O    19.21503  -11.39385   11.64495
      H1    18.68331  -12.17002   11.71513
       H    15.59975  -11.45146   12.84451
       O    15.20982  -12.10575   13.51017
      H1    14.41625  -12.33479   13.08956
       H    11.86173   -7.90192    9.73896
       O    10.96575   -7.60419    9.98376
      H1    11.07442   -6.73614   10.42194
       H    14.03599  -15.57925   12.51051
       O    13.58895  -15.92587   11.74878
      H1    12.73173  -16.16201   12.06844
       H    14.26109   -7.59148    9.71792
       O    13.57275   -7.49723    9.05126
      H1    13.31220   -6.54924    8.94584
       H    14.97690  -13.25172    5.42426
       O    15.12642  -13.29591    4.45762
      H1    15.72989  -12.52837    4.23220
       H    12.64397   -8.74511    4.11087
       O    12.41327   -9.63079    4.39719
      H1    12.77663   -9.53003    5.31326
       H    17.43556  -10.66176   11.62976
       O    16.51377  -10.39830   11.60558
      H1    16.08697  -11.07656   11.01571
       H    14.59525  -12.16211    9.23668
       O    14.00557  -12.08712    9.98047
      H1    13.49582  -12.88123   10.03849
       H    16.61352   -8.50232    4.88042
       O    15.81955   -8.99496    4.65434
      H1    15.44475   -9.24360    5.56314
       H    13.50525   -8.59009    7.43479
       O    13.39513   -9.46486    7.03976
      H1    12.78094   -9.83485    7.66283
       H    11.47822  -12.55052   12.73501
       O    12.11742  -11.88777   12.46301
      H1    12.22830  -12.04933   11.51067
       H    10.96875  -10.48760   11.99899
       O    10.37522  -10.02497   11.45421
      H1    10.80637   -9.15954   11.44130
       H    18.44258  -10.89126    5.51784
       O    18.73173  -10.63859    6.38721
      H1    18.95549  -11.47728    6.82849
       H    14.22043  -13.93038    7.42318
       O    14.75268  -13.14358    7.15040
      H1    15.66026  -13.47027    7.19692
       H    12.36516  -16.01518    7.51381
       O    11.61353  -15.51449    7.74098
      H1    11.01349  -15.59191    6.97318
       H    14.39443   -9.12262   11.26859
       O    13.60858   -9.70688   11.25754
      H1    13.86551  -10.54488   10.78399
       H    11.93617  -14.30330    9.21940
       O    12.25630  -14.00559   10.08467
      H1    12.72267  -14.73955   10.59720
       H    17.09766  -13.03587   13.13442
       O    17.83649  -13.52165   12.59813
      H1    17.42303  -14.35330   12.26762
       H    17.80783   -9.37668    7.12402
       O    17.13205   -8.61219    7.29462
      H1    17.63675   -7.79835    7.30851
       H    17.61974  -17.04326    8.56819
       O    16.97489  -16.31186    8.78519
      H1    17.13269  -15.97079    9.68940
       H    15.30971  -16.10190    8.28348
       O    14.56924  -16.04556    7.66056
      H1    14.93282  -16.71704    7.07210
       H    17.56728  -12.36451    8.67802
       O    16.90920  -11.90203    9.18798
      H1    16.55107  -11.19055    8.66568
       H    17.00637  -16.41673   11.86361
       O    17.32546  -15.62934   11.30844
      H1    18.25015  -15.84071   11.14941
       H    14.78975   -7.08690   11.65522
       O    15.39196   -7.75133   11.40312
      H1    15.90121   -8.12835   12.18592
       H    17.58565   -8.25762    9.18260
       O    17.86988   -7.67527    9.92809
      H1    17.08084   -7.59307   10.55994
       H     9.98900  -12.53201    7.17168
       O    10.75445  -11.93538    6.99732
      H1    10.67934  -11.89687    6.05049
       H    10.02237   -9.99615    9.30715
       O     9.70299   -9.79400    8.43018
      H1    10.24740  -10.39215    7.87515

