84
frame 10 | Written by MDAnalysis XYZWriter (release 2.4.3)
       H    14.18376    1.27035  -15.03557
       O    14.43617    0.93508  -15.88611
      H1    15.33229    0.49828  -15.74186
       H    13.03445   -7.26200  -19.56596
       O    13.37795   -7.38129  -18.67412
      H1    14.08619   -8.05761  -18.74197
       H    16.64809   -4.81983  -11.67486
       O    16.31074   -5.64641  -12.05579
      H1    16.26058   -6.30399  -11.37496
       H    10.72293    0.08202  -17.63103
       O    11.45155   -0.09803  -17.06287
      H1    11.39849   -1.08095  -16.98519
       H    15.12559   -5.17203  -13.67369
       O    14.50700   -5.31330  -14.41651
      H1    13.58996   -5.49209  -14.11964
       H    20.20077   -6.88123  -16.11265
       O    19.43319   -6.33085  -16.34519
      H1    18.88366   -6.98297  -16.85929
       H    10.02863   -5.25084  -17.82892
       O    10.63130   -5.99900  -17.94134
      H1     9.91953   -6.65166  -18.16158
       H    14.31358   -2.02506  -18.22627
       O    13.44979   -1.63669  -18.47254
      H1    13.20515   -1.02827  -17.74861
       H    15.58189   -3.72411  -14.75750
       O    15.66576   -2.75651  -14.82572
      H1    15.78362   -2.57397  -15.75113
       H    16.27501   -7.67469  -19.67577
       O    15.98477   -8.37357  -19.06462
      H1    15.66856   -9.01820  -19.71084
       H    11.63245   -8.49828  -16.18254
       O    12.54473   -8.24010  -16.26113
      H1    12.72925   -8.02916  -17.18798
       H    10.77591   -2.85097  -13.21330
       O    11.68472   -3.12382  -13.26096
      H1    12.09850   -2.31071  -13.56880
       H    12.92989  -11.92443  -19.80615
       O    13.21118  -11.07500  -19.39307
      H1    12.40643  -10.63927  -19.03145
       H    15.77586   -3.71648  -17.53068
       O    15.87615   -2.80276  -17.65090
      H1    16.87348   -2.73176  -17.78339
       H    17.35694   -2.65265  -12.45307
       O    17.21513   -3.06826  -11.58150
      H1    16.72873   -2.41407  -11.09189
       H    18.95177   -1.71233  -17.07203
       O    18.82148   -2.33702  -17.81169
      H1    18.59589   -1.78154  -18.57512
       H    15.67057   -9.38710  -13.66607
       O    15.22204   -9.68152  -12.89616
      H1    14.69755   -8.92729  -12.66761
       H    11.37738   -2.81715  -15.72109
       O    10.90021   -2.72884  -16.56936
      H1     9.98894   -2.72355  -16.25709
       H    12.20615   -6.93598  -13.61836
       O    12.07205   -6.32783  -14.36289
      H1    12.35318   -6.86579  -15.08500
       H    17.18181   -8.63596  -17.75122
       O    17.85034   -8.50115  -17.03963
      H1    18.55994   -9.00080  -17.45057
       H    10.33871   -5.95981  -14.72725
       O     9.47380   -6.20634  -14.97207
      H1     9.03575   -6.35326  -14.15906
       H    14.04804   -6.13978  -10.88039
       O    13.33682   -6.49781  -11.54958
      H1    12.64578   -5.87097  -11.39924
       H    14.05623  -10.17623  -14.58010
       O    13.95281  -10.66214  -15.40865
      H1    13.73729   -9.94560  -15.99083
       H    17.91515   -6.01427  -13.28481
       O    18.72453   -5.59954  -13.53710
      H1    18.82982   -5.69493  -14.49745
       H    16.38295   -7.91740  -15.60100
       O    15.57954   -8.18993  -15.13968
      H1    15.04740   -7.36948  -14.91130
       H    14.29361   -1.96971  -14.47474
       O    13.53434   -1.43341  -14.01294
      H1    13.56616   -0.53617  -14.37405
       H    11.71831   -4.40338  -18.87091
       O    11.75795   -3.57954  -19.33740
      H1    12.34009   -2.98546  -18.78810
       H    14.40072   -5.96387  -17.92877
       O    15.01484   -5.43877  -17.38043
      H1    14.68223   -5.66100  -16.55699

