84
frame 10 | Written by MDAnalysis XYZWriter (release 2.4.3)
       H    14.27511   -7.86987    4.04253
       O    13.49752   -7.59097    3.67813
      H1    13.77352   -7.03574    2.92077
       H    17.32740   -9.70927    0.37655
       O    17.26393   -9.28789    1.26479
      H1    16.37022   -9.19158    1.55660
       H    18.86485   -4.01768    0.33038
       O    18.11324   -4.56746    0.68676
      H1    18.35593   -4.91097    1.52569
       H    18.09480   -5.99959   -3.66134
       O    18.85374   -6.48070   -3.31518
      H1    18.83894   -6.55555   -2.35479
       H    17.15482  -10.62741    2.81767
       O    16.87492  -10.89734    3.69692
      H1    16.54269  -10.12183    4.12993
       H    14.62785  -10.48784    2.12520
       O    14.52467   -9.52216    1.94294
      H1    14.05375   -9.16494    2.65852
       H    18.18360   -4.74727    7.25292
       O    17.46715   -4.24880    6.90154
      H1    17.00374   -4.09797    7.73127
       H    16.87858   -8.66624    5.18131
       O    15.88744   -8.65015    5.25816
      H1    15.67324   -9.39615    5.85870
       H    12.71539   -6.30654   -0.92815
       O    13.24928   -5.48264   -0.87349
      H1    13.73803   -5.56999   -0.07771
       H    11.54047   -4.60691    2.24462
       O    11.84357   -4.45925    3.13585
      H1    12.58083   -4.95265    3.43019
       H    18.23237   -1.13919    2.47139
       O    19.10910   -1.33412    2.02142
      H1    19.80131   -0.97145    2.61675
       H    14.89418   -8.64237   -1.47614
       O    15.73711   -8.48395   -1.99086
      H1    16.04510   -7.69910   -1.51129
       H    15.92890   -3.65538    4.50589
       O    16.41916   -4.46278    4.51031
      H1    17.03805   -4.45679    5.23452
       H    13.88013   -2.58889    7.50986
       O    13.88603   -3.28795    6.83058
      H1    13.97076   -2.77595    6.01432
       H    16.18793   -3.86685    2.71619
       O    15.85051   -3.62930    1.84375
      H1    16.60200   -3.77211    1.21095
       H    17.39086   -0.79775    5.23582
       O    16.82339   -0.51287    4.46528
      H1    16.88383    0.40158    4.16595
       H    18.98631   -2.19634    9.70916
       O    19.50719   -2.21285    8.92297
      H1    18.83436   -2.07937    8.21481
       H    19.31268   -4.75222    3.80706
       O    18.62706   -5.36582    3.41536
      H1    17.74840   -4.96351    3.65995
       H    18.51053  -11.15418    4.93654
       O    19.15177  -11.35396    5.67059
      H1    18.69956  -11.07703    6.44102
       H    14.33146   -5.06638    7.51633
       O    14.77147   -5.83751    7.92674
      H1    15.46804   -5.98447    7.29999
       H    18.22657   -2.15041   -1.85072
       O    17.47296   -2.70061   -1.97962
      H1    16.99581   -2.10633   -2.55601
       H    15.26266   -6.22090    1.00033
       O    14.48620   -5.80570    1.53446
      H1    14.89900   -4.93998    1.79712
       H    17.96053   -2.70004    6.54249
       O    18.41422   -1.84306    6.40511
      H1    19.17766   -1.96539    5.79513
       H    15.47313   -1.54707    1.27959
       O    15.08005   -0.61709    1.23842
      H1    14.25617   -0.73344    1.70857
       H    19.16042   -8.42832    3.33219
       O    18.63809   -7.97697    4.05636
      H1    18.55563   -7.05540    3.74929
       H    19.29404   -5.57838    9.51315
       O    19.65374   -5.07362    8.77324
      H1    19.63386   -4.15527    8.98575
       H    15.39252   -1.44263    4.36268
       O    14.76215   -2.21454    4.43991
      H1    14.18744   -2.19017    3.68884
       H    17.10184   -6.02026    0.43283
       O    16.60141   -6.81233    0.22143
      H1    17.08415   -7.50656    0.75766

