84
frame 10 | Written by MDAnalysis XYZWriter (release 2.4.3)
       H   -13.71267   15.53516    3.51432
       O   -13.86890   15.58034    4.48825
      H1   -14.50344   16.31848    4.55193
       H    -9.78089   16.61740    6.94056
       O    -9.69712   15.89334    7.56870
      H1    -9.64710   15.14808    6.95017
       H   -10.19431   16.66978   12.02262
       O   -10.04495   15.72390   12.14477
      H1   -10.63949   15.28665   11.48093
       H   -10.61929   19.35987    7.22349
       O    -9.84929   18.75025    7.31997
      H1    -9.50387   18.83011    6.41038
       H    -7.32794   14.33632    7.09368
       O    -7.19593   15.20758    6.68811
      H1    -7.92791   15.65200    7.18967
       H   -13.22034   17.12578    9.22622
       O   -13.95253   17.81348    9.40199
      H1   -14.21525   17.66068   10.30624
       H    -8.51576   18.09074    4.74072
       O    -7.90529   18.77922    5.17236
      H1    -7.44941   18.41234    5.94202
       H    -8.84687   14.36249   12.55615
       O    -8.09730   13.93724   13.06091
      H1    -7.96276   13.16910   12.44119
       H   -11.48447   16.86924    1.93145
       O   -11.44263   17.58620    2.59214
      H1   -10.88245   17.21366    3.25383
       H   -13.77079   15.49180   11.52620
       O   -14.56424   15.85168   11.96539
      H1   -14.81759   15.14986   12.63921
       H   -15.32689   17.49409    6.22319
       O   -16.02119   17.00460    5.74782
      H1   -16.20171   17.59385    5.02419
       H    -9.68236   16.06520    4.50479
       O    -9.91114   16.98079    4.68993
      H1   -10.79226   16.96904    5.08861
       H   -14.46874   17.69316   12.27756
       O   -14.48996   18.66340   12.40594
      H1   -13.66802   18.87878   12.86974
       H   -12.07236   14.53600   12.33809
       O   -12.27489   14.18279   11.49209
      H1   -12.57667   13.28690   11.70843
       H   -12.66740   14.83126    8.63280
       O   -12.31761   15.68786    8.49047
      H1   -11.33342   15.57882    8.27916
       H    -9.93079   14.01558    4.31269
       O    -9.44092   14.41498    3.61898
      H1   -10.16400   14.79768    3.01608
       H   -11.85521   13.50550    5.65313
       O   -10.97368   13.84896    5.93894
      H1   -10.52481   13.30479    6.57898
       H   -13.85563   18.45765    7.89868
       O   -13.87089   18.80814    6.95682
      H1   -13.30534   18.22890    6.41144
       H    -9.53738   18.88666   11.80221
       O   -10.16931   18.49362   12.41351
      H1   -10.76699   19.15641   12.69609
       H   -15.69223   14.41696   11.09446
       O   -16.06393   13.70705   10.64581
      H1   -16.86261   13.96280   10.11764
       H   -14.09121   13.73962    5.42426
       O   -13.72200   12.95194    5.84750
      H1   -14.15877   12.23832    5.41347
       H   -16.96969   15.93859    9.67759
       O   -16.82788   16.78867   10.11650
      H1   -16.20414   17.24791    9.53187
       H   -12.10064   16.46169    6.89218
       O   -12.15672   16.89824    6.04350
      H1   -12.57106   16.31443    5.42157
       H    -6.51235   14.29774   10.81583
       O    -7.08692   14.26191   10.02524
      H1    -7.89574   14.75149   10.28727
       H    -9.48301   12.13859    8.28751
       O    -9.28746   12.36070    7.36111
      H1    -9.46865   11.52798    6.91090
       H    -9.68148   12.12673   10.97589
       O   -10.00848   11.97051   10.11724
      H1   -10.94227   11.82686   10.36274
       H   -13.09943   11.95398    9.77990
       O   -12.55718   11.28610   10.19211
      H1   -12.70824   10.43396    9.73575
       H   -14.78951   13.38002    9.33291
       O   -13.99544   13.22080    8.83992
      H1   -14.22080   13.04976    7.98083

