84
frame 10 | Written by MDAnalysis XYZWriter (release 2.4.3)
       H     7.90423  -12.88466    6.02997
       O     8.46395  -13.66905    6.21475
      H1     8.21519  -13.89379    7.13013
       H     7.02349  -18.21945   14.45726
       O     6.76601  -17.30346   14.21776
      H1     5.85236  -17.15229   14.39355
       H     8.58227  -13.32124   12.55350
       O     9.31802  -13.86475   12.93512
      H1     8.93244  -14.32676   13.70155
       H     7.23985  -10.96218   10.54813
       O     7.07039  -10.22365    9.87158
      H1     7.92037  -10.22846    9.31226
       H     1.49858  -13.25520    8.31116
       O     1.97968  -12.47371    8.67142
      H1     2.00305  -11.77405    7.92515
       H     1.07237  -11.37199   11.69262
       O     1.29470  -12.33100   11.53936
      H1     1.11776  -12.41594   10.60164
       H     4.61766  -14.06739   11.00186
       O     5.23941  -14.47916   11.67236
      H1     5.74246  -15.13550   11.15326
       H     5.53825  -20.05486   10.59279
       O     5.71090  -19.29927    9.98798
      H1     6.02272  -18.53759   10.42831
       H     9.28333  -18.47562   10.38434
       O     8.64647  -19.09503   10.73393
      H1     9.14102  -19.38970   11.54733
       H     6.18497  -11.33278    9.00640
       O     5.61491  -12.03525    8.60927
      H1     6.04437  -12.86398    8.69485
       H     8.12687  -16.02138   11.18917
       O     8.89763  -15.50333   10.84530
      H1     9.05514  -14.83038   11.56341
       H     3.79091  -17.41340    8.31008
       O     3.53427  -17.40571    9.24707
      H1     4.02716  -18.15368    9.64900
       H     7.67130  -15.99480   14.94653
       O     8.16475  -15.19711   15.19477
      H1     7.78719  -14.76986   16.04683
       H    11.56019  -17.16501   10.73560
       O    10.97819  -17.05812   11.46685
      H1    10.17904  -16.63754   11.05700
       H     5.33438  -11.78889    5.70276
       O     4.59325  -12.15499    6.18551
      H1     4.95817  -12.20457    7.12274
       H     7.53747  -12.02486   12.54238
       O     7.47924  -12.43876   11.64406
      H1     6.67161  -12.97552   11.69522
       H     2.80163  -16.80745   12.18853
       O     2.91315  -16.14311   12.86750
      H1     3.70257  -15.66173   12.54042
       H     4.11729   -8.91136   11.18617
       O     3.79375   -9.48504   11.94539
      H1     3.94563  -10.42758   11.60815
       H     2.44405  -14.32424   14.43659
       O     1.65928  -14.39638   15.03146
      H1     1.61819  -15.34680   15.13617
       H     3.51042  -15.52359    8.98890
       O     3.77290  -14.57578    9.02576
      H1     2.99810  -14.08713    8.67360
       H     4.11456  -12.42539   14.47570
       O     3.96070  -13.25896   14.05826
      H1     4.48829  -13.30360   13.29242
       H     6.78210  -15.02561    8.69745
       O     7.37935  -14.24450    8.81752
      H1     7.90333  -14.57207    9.54016
       H     3.60871  -14.70362   16.93602
       O     4.38579  -14.84151   16.34365
      H1     4.24003  -14.26996   15.56785
       H     3.14402  -12.17744   11.10147
       O     4.05535  -11.93982   10.93586
      H1     4.26518  -12.07509    9.99805
       H     7.30647  -17.83845   11.44878
       O     6.72669  -17.02407   11.57584
      H1     6.64260  -16.89202   12.55493
       H     8.86020  -17.14750    7.86254
       O     9.68124  -17.65671    7.67639
      H1    10.33999  -16.88641    7.68973
       H     4.14968  -16.50175   15.75776
       O     4.14926  -17.15087   15.02328
      H1     3.63945  -16.63428   14.35305
       H     6.90124  -16.32383    6.68434
       O     6.91415  -16.69774    7.58499
      H1     6.70808  -17.59293    7.33908

