84
frame 10 | Written by MDAnalysis XYZWriter (release 2.4.3)
       H    -5.57673    7.12232   -8.28738
       O    -5.91498    6.24125   -7.99899
      H1    -6.39073    6.45172   -7.20014
       H    -4.18075   13.52840  -10.43675
       O    -4.17443   12.60774  -10.70737
      H1    -3.96685   12.56811  -11.64483
       H    -8.90319    9.07246   -8.05936
       O    -8.11674    8.55693   -8.33791
      H1    -8.37252    7.62840   -8.53635
       H    -7.47813    8.72882   -5.18005
       O    -7.07683    9.34653   -5.88162
      H1    -7.48064    9.08693   -6.74351
       H    -0.50639    8.77492   -6.07831
       O    -0.47536    8.38656   -6.95041
      H1    -0.97989    9.05278   -7.45643
       H     0.62420   12.25643  -11.73535
       O    -0.34659   12.26578  -11.50938
      H1    -0.66258   11.37882  -11.40361
       H    -4.20736    7.98839   -5.28870
       O    -4.43050    8.89179   -4.93703
      H1    -5.33143    9.07161   -5.15790
       H     0.12982    6.47610  -14.05118
       O    -0.39723    6.48226  -13.23587
      H1     0.17322    6.05149  -12.58157
       H    -1.96770    6.61938  -12.74965
       O    -2.75440    6.69417  -12.18771
      H1    -3.49506    6.47405  -12.76420
       H    -5.85146    6.82226  -13.46336
       O    -5.47954    5.92786  -13.36881
      H1    -5.12468    5.77010  -14.27842
       H     1.26892    8.43369  -11.20511
       O     1.29132    8.60360  -12.19138
      H1     0.46999    8.19199  -12.49543
       H    -6.89950    3.32122   -8.92866
       O    -5.96831    3.17481   -8.84571
      H1    -5.48918    4.03470   -8.83198
       H    -5.45378   10.95905   -8.56917
       O    -4.99548   11.48670   -7.88033
      H1    -4.82081   12.32331   -8.26430
       H     1.41919    6.60991   -8.64668
       O     1.70258    7.55042   -8.78509
      H1     1.23612    8.12017   -8.14523
       H    -7.03546   10.11165  -11.28296
       O    -7.58891   10.37519  -11.98901
      H1    -8.35954    9.78191  -11.87593
       H    -4.42801   11.26987  -13.87435
       O    -4.16217   12.14894  -13.54004
      H1    -4.99838   12.65512  -13.56809
       H    -2.14030    9.75800  -10.64942
       O    -2.28589   10.48151  -11.22787
      H1    -2.82133   11.17029  -10.69650
       H     1.69837    4.48294  -11.16906
       O     0.87917    4.99246  -11.19272
      H1     0.43531    4.52000  -11.92768
       H    -4.61531    5.87523   -6.36535
       O    -3.96997    6.48531   -5.95922
      H1    -3.49525    5.94156   -5.33377
       H    -1.44879    7.35531  -10.63909
       O    -0.88790    7.99297  -10.20999
      H1    -0.30634    7.50699   -9.56592
       H    -2.94341    4.84531   -9.76100
       O    -3.27833    4.83297   -8.86948
      H1    -3.79848    5.57601   -8.72971
       H    -3.44028   10.43349   -7.78818
       O    -2.69071    9.74330   -7.64853
      H1    -3.03131    9.07604   -7.09018
       H    -6.92603    9.22606  -13.19415
       O    -6.44530    8.71988  -13.80734
      H1    -7.17741    8.54570  -14.43259
       H    -3.67129    7.61106  -10.21531
       O    -4.06043    7.80985   -9.38844
      H1    -3.29399    8.27531   -8.90680
       H    -5.27857    9.34432   -9.68214
       O    -6.14470    9.80803   -9.67304
      H1    -6.76623    9.23873   -9.17000
       H    -3.86421    9.93572  -15.09616
       O    -4.72745   10.22434  -15.46169
      H1    -5.31589    9.77904  -14.88844
       H    -2.28640    8.80632  -14.18881
       O    -2.41186    9.78055  -14.02219
      H1    -2.51307    9.92774  -13.07847
       H    -1.14685    6.00888   -6.65457
       O    -0.96590    5.19002   -7.13591
      H1    -1.74110    5.16825   -7.70038

