87
frame 1 | Written by MDAnalysis XYZWriter (release 2.4.3)
       H   -19.14282  -17.37822   -7.37109
       O   -19.80681  -16.89269   -6.83263
      H1   -19.87160  -17.40084   -6.00021
       H   -18.73360  -18.03252   -3.96496
       O   -18.95058  -17.04923   -4.05061
      H1   -19.45586  -16.84551   -3.26644
       H   -17.33692   -5.55182   -1.55212
       O   -17.48006   -6.39395   -1.90364
      H1   -16.92130   -6.28777   -2.63510
       H   -16.56391  -11.22196   -1.18077
       O   -16.40218  -10.51613   -1.81254
      H1   -16.44487  -10.94657   -2.67538
       H   -17.92353  -11.81824  -11.13272
       O   -17.02416  -11.58981  -11.39609
      H1   -16.92983  -10.65247  -11.12860
       H   -17.71128   -5.37384   -6.17467
       O   -18.70520   -5.52035   -6.02954
      H1   -18.98538   -5.27106   -5.13472
       H   -14.44210   -6.07105   -3.31563
       O   -15.36230   -5.97219   -3.72554
      H1   -15.30338   -6.49189   -4.55809
       H   -16.92166  -15.28044   -7.59692
       O   -16.83856  -15.51993   -8.49208
      H1   -16.38495  -14.78245   -8.86560
       H   -16.32596  -15.21179   -4.65540
       O   -16.92336  -15.49147   -5.36173
      H1   -17.52664  -16.13307   -4.93656
       H   -16.32512   -8.32063  -11.37954
       O   -16.46734   -9.08956  -10.78156
      H1   -17.28879   -8.94937  -10.32165
       H   -19.33848   -7.75851   -9.82223
       O   -18.86003   -8.58371   -9.62326
      H1   -18.54061   -8.52481   -8.72739
       H   -17.92080  -11.87675    0.78570
       O   -17.06973  -12.22776    0.41061
      H1   -16.48048  -12.36484    1.15305
       H   -16.12906   -8.00193   -5.89860
       O   -15.16348   -7.98481   -5.84278
      H1   -14.99802   -8.12336   -6.80581
       H   -13.17865  -10.23356   -5.03153
       O   -13.78942   -9.80580   -4.37821
      H1   -14.40095   -9.32976   -4.98586
       H   -12.87482   -8.30097   -4.20673
       O   -12.39657   -7.51461   -3.87393
      H1   -11.48978   -7.65961   -4.14584
       H   -18.12946  -11.01777   -5.09405
       O   -17.66387  -11.05379   -4.26221
      H1   -18.37943  -10.99701   -3.55340
       H   -17.49935   -9.29663   -1.01106
       O   -18.19589   -8.74316   -0.59323
      H1   -17.99620   -7.92357   -1.05505
       H   -14.27739  -10.24086   -1.53087
       O   -13.38264  -10.29510   -1.37329
      H1   -13.29094  -10.93990   -0.62323
       H   -17.75451  -14.56105   -1.51951
       O   -17.43332  -14.61011   -0.61642
      H1   -17.25551  -13.68895   -0.41203
       H   -19.76156  -14.76025   -6.33983
       O   -19.36337  -14.15332   -5.73145
      H1   -18.54367  -14.61045   -5.41498
       H   -14.99616  -11.90146   -5.48087
       O   -15.48612  -12.74537   -5.41186
      H1   -16.32954  -12.37819   -4.99833
       H   -12.33640  -11.51576   -3.02902
       O   -11.83145  -12.22892   -3.39775
      H1   -11.03109  -11.79485   -3.63474
       H   -18.25914   -8.43150   -6.22560
       O   -17.68477   -7.96139   -6.80590
      H1   -17.92888   -7.02219   -6.73574
       H   -12.86007  -10.46520   -8.06726
       O   -13.33947  -10.11366   -7.30588
      H1   -14.25000  -10.24493   -7.50637
       H   -15.62848  -11.71640   -8.65725
       O   -15.84788  -10.88061   -8.26639
      H1   -16.71699  -11.00552   -7.87795
       H   -14.70360  -13.46288  -10.07225
       O   -15.52374  -13.12428   -9.68818
      H1   -15.99615  -12.67411  -10.36113
       H   -14.33553  -14.72676   -2.88484
       O   -15.12984  -15.18071   -3.18205
      H1   -15.18254  -15.94069   -2.54318
       H   -18.71047  -12.43915   -6.56972
       O   -18.54926  -11.55348   -6.94298
      H1   -19.15094  -11.32093   -7.66718
       H   -13.89300  -13.38030   -5.98914
       O   -12.89909  -13.47148   -6.22678
      H1   -12.47246  -12.81150   -5.60754

