87
frame 2 | Written by MDAnalysis XYZWriter (release 2.4.3)
       H   -17.76639   11.42098  -11.38403
       O   -18.03967   10.49613  -11.40656
      H1   -18.57302   10.33769  -10.58428
       H   -17.49047    9.69458   -6.45780
       O   -17.68116    9.80969   -5.49475
      H1   -17.74751    8.91684   -5.11830
       H   -11.40916   12.60283  -11.07628
       O   -11.66629   11.73285  -10.78334
      H1   -12.64482   11.68851  -10.77554
       H   -13.97383   13.27563  -12.87087
       O   -13.96050   12.39025  -12.57969
      H1   -14.84729   11.99117  -12.79273
       H   -15.45374   15.09249  -13.03842
       O   -16.13189   15.38249  -12.36177
      H1   -16.38411   14.53617  -11.91198
       H   -14.68570    8.89789   -2.02106
       O   -14.22033    8.67753   -2.87387
      H1   -14.39233    9.33632   -3.47132
       H   -14.25300    9.09195  -11.29320
       O   -13.79423    8.26685  -11.60720
      H1   -12.90000    8.51645  -11.73009
       H   -14.21239   12.12441   -5.99325
       O   -14.21798   12.79496   -6.69769
      H1   -13.33991   12.77957   -7.11154
       H   -12.95760   10.16898   -6.86759
       O   -12.98561    9.78291   -7.71204
      H1   -13.66423   10.27898   -8.17344
       H   -14.42821    7.06056   -9.18648
       O   -15.30863    7.40132   -8.90637
      H1   -15.92883    6.86040   -9.45228
       H   -13.58962    5.89415   -6.53331
       O   -13.46475    4.91337   -6.65564
      H1   -12.78996    4.93145   -7.34645
       H   -15.34736   11.41072   -3.97578
       O   -15.14702   10.77025   -4.72446
      H1   -16.02524   10.39353   -5.04770
       H   -17.79442   13.78609  -11.52825
       O   -17.15479   13.13684  -11.29360
      H1   -17.03244   13.30302  -10.24649
       H   -12.52411    6.65784  -10.43895
       O   -12.69356    6.24956   -9.56254
      H1   -11.80699    5.97044   -9.23520
       H   -13.36216   15.04747  -10.05846
       O   -14.18968   15.05732   -9.59445
      H1   -14.81264   15.55620  -10.17965
       H   -17.94242    6.97470   -7.32420
       O   -17.11981    6.97067   -6.83941
      H1   -16.44448    6.99088   -7.52263
       H   -19.11886    8.34197  -11.62817
       O   -18.87373    7.60189  -11.06697
      H1   -19.69891    7.11399  -10.95252
       H   -18.34429   12.38324   -3.99048
       O   -18.06920   12.95569   -3.24522
      H1   -18.75528   12.83996   -2.57252
       H   -16.80821    5.25330  -10.71157
       O   -17.16289    5.79699  -10.00117
      H1   -17.64863    6.51162  -10.57526
       H   -15.28368   16.25961   -6.22170
       O   -15.26358   15.60714   -5.53293
      H1   -14.71895   14.87612   -5.90191
       H   -18.65368   14.73672   -6.49910
       O   -18.56294   13.83515   -6.66806
      H1   -17.96432   13.76674   -7.39133
       H   -11.36006   13.27429   -8.80128
       O   -11.71890   13.24580   -7.92208
      H1   -11.57775   14.10000   -7.53526
       H   -11.24189    8.88574   -7.54654
       O   -10.33756    8.79535   -7.24070
      H1   -10.41746    8.42785   -6.35781
       H   -15.90011   10.45747   -8.33345
       O   -16.11516   10.97355   -7.55351
      H1   -15.31649   11.37628   -7.27746
       H   -11.11112   11.08570   -6.11472
       O   -11.86263   10.87977   -5.54598
      H1   -11.67198   10.00816   -5.07410
       H   -18.83194   11.11581   -5.59223
       O   -19.56068   11.69191   -5.29268
      H1   -19.35465   12.50768   -5.75754
       H   -13.98900    8.56753   -6.68548
       O   -13.95656    7.75485   -6.09819
      H1   -14.88119    7.66429   -5.83647
       H   -15.64003    8.96516  -10.05383
       O   -15.54572    9.93437  -10.21217
      H1   -16.35218   10.27602  -10.65115
       H   -15.81075   13.84346   -8.46076
       O   -16.59743   13.30687   -8.68179
      H1   -16.47935   12.45003   -8.28864

