87
frame 1 | Written by MDAnalysis XYZWriter (release 2.4.3)
       H    17.79218    3.95536   -8.00138
       O    18.54665    3.73784   -7.45059
      H1    18.43436    2.79663   -7.18086
       H    16.16039    8.23970   -5.97537
       O    15.56120    8.66690   -6.64840
      H1    14.67112    8.42567   -6.49988
       H    19.92114    5.76640  -10.90915
       O    19.30871    6.42842  -11.14313
      H1    18.43630    5.93871  -11.19317
       H    15.46878   10.13184   -3.13051
       O    15.71637   11.09805   -3.26755
      H1    15.06486   11.57283   -2.72105
       H    14.75709    9.42863   -8.50333
       O    14.51661    9.61054   -9.40208
      H1    13.73441    9.07891   -9.59665
       H    14.81815   11.66343   -8.85065
       O    15.08367   12.22937   -8.10474
      H1    14.99473   13.15411   -8.35322
       H    18.81965   11.30350   -4.27526
       O    18.38513   11.44262   -3.41241
      H1    17.47913   11.48533   -3.59494
       H    14.74672    3.20682   -3.62161
       O    15.23983    3.90107   -3.20668
      H1    15.51419    4.37896   -3.99708
       H    19.13302   10.45037   -9.31748
       O    19.42102    9.83572   -9.99978
      H1    18.58810    9.42937  -10.31118
       H    17.15188    4.27869   -5.44871
       O    16.49754    4.96157   -5.30292
      H1    17.09306    5.69263   -5.10533
       H    19.04427   10.86395   -7.06372
       O    18.29709   10.64816   -7.67593
      H1    17.68042   10.15590   -7.15941
       H    17.70494   10.49913   -1.65789
       O    17.92606    9.79263   -1.06520
      H1    16.99764    9.36112   -0.96647
       H    18.25887   12.48366   -8.29617
       O    18.14778   13.44137   -8.39588
      H1    18.66100   13.58079   -9.25831
       H    18.85410    5.30501   -2.57261
       O    19.14571    6.03650   -1.98369
      H1    19.30362    6.81341   -2.49842
       H    17.22605    3.44983   -3.18901
       O    18.12264    3.50327   -2.82459
      H1    18.74512    2.88572   -3.16721
       H    17.02134    7.77576   -9.80600
       O    17.05260    8.46767  -10.50889
      H1    16.16336    8.86882  -10.28006
       H    14.87916   11.57615   -4.91958
       O    14.14158   11.69014   -5.53030
      H1    14.56836   11.91812   -6.37337
       H    18.32861    7.65599   -6.38743
       O    17.78098    7.49788   -5.60828
      H1    18.33393    7.97893   -4.97414
       H    13.73229    9.88600   -5.78658
       O    13.09701    9.17221   -5.76609
      H1    12.78993    9.30360   -4.84517
       H    17.36411    0.88667   -6.16436
       O    18.16337    1.39733   -5.99886
      H1    18.90000    0.86182   -5.69265
       H    13.60079    2.61873   -7.32733
       O    14.53206    2.82610   -7.23640
      H1    14.91069    1.92151   -7.02017
       H    15.42401    3.48953   -8.56717
       O    16.24328    3.94497   -8.97612
      H1    16.05631    3.89302   -9.94096
       H    13.66415    9.20685   -3.08091
       O    14.56470    8.86198   -2.95511
      H1    14.55731    8.61363   -2.01311
       H    16.79043    6.91715  -11.66965
       O    16.76437    5.98284  -11.92430
      H1    16.93969    5.88981  -12.82170
       H    14.80014    6.27157   -5.14300
       O    14.06548    6.46787   -4.48755
      H1    14.28170    7.33059   -4.08267
       H    12.14026    7.40288   -9.18147
       O    12.91360    7.32310   -9.78735
      H1    13.55700    6.85447   -9.28002
       H    19.26211    8.42906   -8.49356
       O    19.35729    7.60092   -7.96777
      H1    19.22050    6.82668   -8.52990
       H    15.61821    6.96477   -7.55596
       O    15.07162    6.35866   -8.14364
      H1    15.57674    5.53896   -8.20322
       H    18.13960    6.43241    0.78700
       O    18.23965    7.25410    0.33796
      H1    18.50407    6.96506   -0.54686

