87
frame 1 | Written by MDAnalysis XYZWriter (release 2.4.3)
       H    -1.35804    9.81857    8.75902
       O    -2.32581    9.94014    8.93918
      H1    -2.71785    9.03075    8.83605
       H     1.47922    4.76637    6.66877
       O     1.05608    4.58042    7.50915
      H1     1.11384    5.39870    7.97190
       H    -1.64161    5.17595   10.84128
       O    -2.00430    4.32344   10.97925
      H1    -2.97283    4.51772   11.05589
       H    -5.92617   10.12674   10.66301
       O    -5.97998   10.95096   11.14334
      H1    -5.87698   10.70716   12.07354
       H    -2.55135   14.03731    8.21264
       O    -3.23067   14.70757    8.10615
      H1    -3.09279   14.98754    7.11460
       H     0.31142    8.87221    6.63793
       O     0.25756    9.36715    7.49086
      H1     0.88492   10.07008    7.49809
       H     0.35893    6.86960   10.20091
       O    -0.31440    6.78980   10.86347
      H1    -0.02292    7.49150   11.48782
       H    -2.26848    9.45697   14.11831
       O    -3.08180    9.47373   13.61340
      H1    -2.94989   10.26332   13.07099
       H     3.13758   11.37870    7.73823
       O     2.25325   11.47711    8.16036
      H1     2.25840   11.27141    9.11833
       H    -5.20408    8.38791    5.60433
       O    -5.72028    8.59013    4.76318
      H1    -5.00655    8.78961    4.04166
       H    -1.65681   11.89698   11.17253
       O    -0.80101   12.36215   11.09068
      H1    -0.89841   12.72651   10.18907
       H     1.48340   13.26496    5.81744
       O     1.21376   13.49253    6.67959
      H1     1.40454   12.79234    7.31664
       H    -3.33544    8.24557   12.30433
       O    -3.63005    7.69590   11.51985
      H1    -4.02927    7.00465   12.00903
       H    -4.33713   11.44870   11.31950
       O    -3.36689   11.41527   11.34996
      H1    -3.10287   10.79135   10.63948
       H    -1.51233    7.09682    9.61340
       O    -1.96616    7.07990    8.74627
      H1    -1.37710    6.67287    8.12050
       H    -1.36571   12.27567    7.58066
       O    -0.96768   12.83170    8.29760
      H1    -0.50780   13.43766    7.77363
       H    -4.16772    4.80540    7.69160
       O    -4.16221    5.33035    8.49892
      H1    -3.23762    5.44648    8.72327
       H    -1.06148    8.29057    3.88603
       O    -1.36807    8.67972    3.07328
      H1    -2.31237    8.65939    3.12957
       H    -1.64373   10.97412    4.96430
       O    -1.18677   11.16894    4.17291
      H1    -1.29753   10.29374    3.65712
       H     1.45226    9.91432   13.18155
       O     2.13906   10.58997   13.15259
      H1     1.59450   11.40118   13.31011
       H    -0.32852   13.27653   13.87857
       O     0.34537   12.81470   13.39610
      H1    -0.14326   12.56443   12.56968
       H    -5.64356    8.17945    8.95491
       O    -5.83884    8.38673    9.88562
      H1    -4.99686    8.01286   10.26217
       H    -2.74576   10.69530    7.40324
       O    -2.58658   11.32868    6.64060
      H1    -3.41464   11.75923    6.39496
       H     2.11870    6.90583    8.43994
       O     1.15491    7.09905    8.47223
      H1     1.17607    8.05387    8.30157
       H     1.16482    8.21341    4.75568
       O     0.35987    7.83531    5.12478
      H1     0.45416    6.89855    5.23126
       H     0.56087    7.93551   13.66119
       O     0.09811    8.77775   13.42013
      H1    -0.31725    8.91253   14.29994
       H     2.73892   12.59202   10.89371
       O     2.94336   11.63088   10.94028
      H1     2.60506   11.24747   11.76250
       H    -6.27224    7.50706    7.29849
       O    -5.41290    7.92771    7.34899
      H1    -4.91875    7.10255    7.42193
       H    -5.50548   13.29008    5.80215
       O    -4.97835   12.51813    5.54297
      H1    -5.50793   11.79296    5.82140

