87
frame 1 | Written by MDAnalysis XYZWriter (release 2.4.3)
       H     8.09434   -5.83421  -14.46985
       O     8.67223   -6.47278  -14.01580
      H1     8.66330   -6.15790  -13.08174
       H     6.45908   -5.13270  -15.92718
       O     6.81947   -4.85556  -15.10267
      H1     6.07809   -4.36974  -14.72098
       H    12.99090   -1.07084  -18.03341
       O    13.79884   -0.80248  -17.57778
      H1    14.44344   -1.52547  -17.75761
       H     6.87055   -0.48008  -18.44625
       O     6.11380   -0.11058  -18.92965
      H1     5.51410    0.21013  -18.21821
       H    10.33014   -1.45568  -18.66835
       O    11.10412   -1.48515  -18.03007
      H1    11.33593   -2.45638  -18.16588
       H     8.46184   -1.07564  -16.13058
       O     8.14455   -0.30874  -16.65012
      H1     8.02966    0.31553  -15.94654
       H    13.93381   -5.39810  -12.66076
       O    14.29062   -5.08429  -13.43177
      H1    13.50842   -4.78390  -14.02615
       H    11.92739   -4.07745  -14.81698
       O    12.19891   -4.78285  -15.37630
      H1    11.88590   -5.58904  -14.88790
       H     5.84701    0.88665  -13.01120
       O     5.49507    0.11290  -13.50899
      H1     6.23653   -0.31291  -13.92158
       H    10.00747   -2.73452  -11.91233
       O    10.36182   -3.49328  -12.35474
      H1    10.26109   -3.28361  -13.32072
       H     8.27463    4.61047  -14.98645
       O     9.10232    4.57256  -14.51877
      H1     9.41401    3.69928  -14.65161
       H    13.38218   -1.10284  -14.28453
       O    12.78610   -1.41024  -14.95435
      H1    13.30125   -1.24349  -15.77039
       H     9.63974   -1.84059  -14.41854
       O    10.29999   -2.33243  -14.86728
      H1    11.02077   -1.71380  -14.99509
       H     4.29296   -3.36950  -13.52137
       O     5.21928   -3.20242  -13.65407
      H1     5.36205   -2.67340  -14.41928
       H     6.98991   -4.67597   -9.47941
       O     6.90887   -4.66856  -10.43696
      H1     7.03555   -3.80854  -10.78400
       H    13.19654   -1.36949  -11.28976
       O    12.59030   -1.52158  -10.45811
      H1    11.65576   -1.35256  -10.66691
       H     9.01815    0.92115  -18.07254
       O     9.37807    1.48690  -18.77968
      H1     8.97767    2.32181  -18.65821
       H     4.99246   -1.58294  -16.25896
       O     5.48309   -2.40810  -16.26875
      H1     6.33241   -2.08401  -16.62251
       H     9.61810   -1.22807   -9.91181
       O     9.76667   -1.19465  -10.87822
      H1     9.81672   -0.26783  -11.07902
       H     8.16036   -1.12883  -12.86553
       O     8.50495   -0.71255  -13.65171
      H1     9.17374   -0.11485  -13.33586
       H    10.40246    2.12915  -17.27529
       O    10.99883    2.61432  -16.70703
      H1    10.74688    3.49809  -16.67817
       H     9.75244    1.84923  -12.24871
       O    10.19237    1.08123  -12.60875
      H1    10.86453    1.33475  -13.26476
       H     9.10863   -3.10907  -16.16236
       O     8.19678   -3.01480  -16.52193
      H1     7.76414   -3.56992  -15.80932
       H    11.80973   -7.48121  -13.69104
       O    11.33185   -7.16701  -14.47646
      H1    10.44026   -6.99947  -14.09225
       H    12.25302    0.44965  -14.81192
       O    12.07601    1.37063  -14.58687
      H1    11.80249    1.80813  -15.38000
       H     6.62012   -1.66408  -11.14249
       O     6.92920   -2.13222  -11.87974
      H1     6.20599   -2.41149  -12.43956
       H    11.67582   -4.53527  -18.31901
       O    12.34033   -3.83966  -18.45345
      H1    12.81926   -3.80036  -17.60655
       H     9.91282   -5.10156  -11.70876
       O     9.47720   -5.75840  -11.17823
      H1     8.63528   -5.39508  -10.83338
       H     7.93168   -3.39413  -18.40091
       O     7.88514   -3.93360  -19.19531
      H1     7.36954   -3.37595  -19.78889

