87
frame 0 | Written by MDAnalysis XYZWriter (release 2.4.3)
       H    -5.01980   -3.70446  -10.88101
       O    -4.72808   -4.28919  -10.12987
      H1    -4.31058   -3.66930   -9.44958
       H    -4.73799   -7.50878   -2.86660
       O    -4.60620   -7.99083   -2.02873
      H1    -4.60138   -7.25793   -1.35677
       H    -5.43881   -2.34457   -5.83510
       O    -5.73363   -2.49432   -6.73802
      H1    -5.34600   -1.86226   -7.32451
       H    -9.15269   -1.83774   -7.96269
       O    -8.82781   -2.76026   -8.21966
      H1    -7.97996   -2.69230   -8.71149
       H    -3.63377   -5.07606   -6.03795
       O    -4.32948   -5.24625   -6.67721
      H1    -4.54008   -6.18288   -6.77331
       H    -5.37488   -1.90796   -3.26397
       O    -4.87568   -2.57039   -3.75872
      H1    -3.90225   -2.35044   -3.73598
       H    -1.30927   -5.12400   -6.40474
       O    -1.88048   -4.83365   -5.64510
      H1    -1.14158   -4.67464   -5.01589
       H    -1.17677   -3.08993   -6.38251
       O    -0.82400   -2.21631   -6.41203
      H1    -0.96895   -1.83869   -7.25681
       H    -8.90134   -7.17954   -5.01253
       O    -8.54963   -6.75294   -4.19346
      H1    -8.59261   -5.81616   -4.17270
       H    -6.15849   -4.95790   -9.19229
       O    -6.91565   -5.44163   -8.72857
      H1    -7.00084   -5.20208   -7.82546
       H    -9.06085   -2.84291   -4.23210
       O    -8.39146   -2.52603   -4.85543
      H1    -8.40196   -3.21865   -5.56395
       H    -9.29873   -8.33197   -7.66298
       O    -9.53492   -8.08612   -6.77282
      H1   -10.03832   -8.88960   -6.47799
       H    -3.02199  -10.93598   -4.91042
       O    -2.96958  -11.57160   -5.62385
      H1    -2.21054  -11.38451   -6.14935
       H    -4.16926   -7.60624  -10.79920
       O    -4.54713   -8.37137  -10.40180
      H1    -5.51260   -8.22264  -10.55661
       H    -2.80731   -3.90213   -8.27500
       O    -3.38727   -3.12704   -8.23179
      H1    -4.00877   -3.29965   -7.54286
       H    -7.88193   -8.02076  -10.42423
       O    -7.45833   -7.79679   -9.57027
      H1    -7.54046   -6.85433   -9.41398
       H    -6.78797   -7.07460   -4.26520
       O    -5.83590   -6.99209   -4.47884
      H1    -5.72779   -7.24982   -5.42210
       H    -5.90971   -7.12022   -8.14139
       O    -5.42472   -7.54736   -7.44604
      H1    -5.30475   -8.41682   -7.81789
       H    -5.83096   -5.46462   -3.26200
       O    -6.03322   -4.72136   -2.66600
      H1    -5.59178   -3.97369   -3.11345
       H    -2.36581   -0.45368   -7.81621
       O    -2.00073   -0.93848   -8.58408
      H1    -2.53350   -1.74928   -8.60409
       H    -2.97864   -5.56492  -11.21743
       O    -2.95044   -6.24263  -11.93575
      H1    -2.98563   -5.70708  -12.74965
       H    -9.25120   -4.73379   -8.75309
       O   -10.10222   -5.15348   -8.97922
      H1    -9.94300   -5.79948   -9.64593
       H    -1.46678   -9.07734   -6.23078
       O    -1.22295   -8.41588   -5.61771
      H1    -1.76372   -7.69261   -5.78314
       H     0.40414   -6.26982   -6.91487
       O    -0.27347   -5.81061   -7.56458
      H1    -0.83378   -6.51858   -7.93478
       H    -7.43104   -9.10098   -7.15558
       O    -7.06069   -9.97233   -7.24330
      H1    -7.64375  -10.38534   -7.89406
       H    -1.37658   -8.03024   -8.90390
       O    -1.98759   -7.72789   -8.27558
      H1    -2.83755   -7.65754   -8.73742
       H    -0.04721   -9.04593   -2.55599
       O    -0.63319   -8.30073   -2.95139
      H1    -0.78403   -8.55741   -3.85583
       H    -3.42413   -9.28925   -2.66139
       O    -3.24067  -10.13130   -3.04080
      H1    -2.44513  -10.43883   -2.59349
       H    -6.55376   -5.44486   -5.73345
       O    -7.28863   -4.84323   -5.99848
      H1    -6.81364   -3.99884   -6.05812

