87
frame 2 | Written by MDAnalysis XYZWriter (release 2.4.3)
       H    18.38982   17.05863  -16.77309
       O    19.27433   17.09921  -17.16143
      H1    19.14507   17.58764  -17.96524
       H    15.57953   14.24869  -16.40012
       O    15.35083   14.10672  -15.47454
      H1    14.85608   13.26799  -15.38506
       H    16.68539   16.65768  -12.54143
       O    16.92103   16.94181  -11.62028
      H1    16.56745   16.31043  -10.96930
       H    13.25572   12.80761  -11.20611
       O    13.75487   13.11679  -11.97785
      H1    13.43393   14.03857  -12.03807
       H    15.78611   12.51353  -11.70385
       O    16.66589   12.26056  -11.42527
      H1    16.86557   12.87868  -10.70674
       H    16.96803   16.42045  -15.61011
       O    16.72865   17.07299  -16.35249
      H1    15.83065   17.34608  -16.28730
       H    19.17945   15.51192  -17.78090
       O    19.08768   14.74192  -18.34986
      H1    19.63612   14.05356  -17.90838
       H    17.38427   13.28181  -15.56722
       O    18.33700   13.46642  -15.43561
      H1    18.80765   13.09790  -16.20322
       H    17.25509    7.96489  -15.17815
       O    17.99269    8.10982  -15.82241
      H1    18.00883    7.28026  -16.34528
       H    16.82456   11.23342  -17.42080
       O    16.03818   11.75855  -17.71527
      H1    16.24091   12.71465  -17.74755
       H    14.43503    9.39781  -15.94579
       O    15.11538   10.04816  -15.89831
      H1    15.22233   10.58492  -16.72148
       H    18.42469    9.35528  -17.01491
       O    18.32894   10.18574  -17.52871
      H1    19.19020   10.33888  -17.89518
       H    15.19165   16.97393  -20.24487
       O    15.44508   16.94929  -19.33394
      H1    14.84406   17.49833  -18.86379
       H    15.09754    8.71248  -19.36450
       O    14.87677    7.79787  -19.34233
      H1    15.71714    7.26672  -19.51213
       H    14.30805   11.20868  -14.76645
       O    13.78651   12.03655  -14.48718
      H1    13.86050   12.11969  -13.49585
       H    14.11954   15.03656  -14.50203
       O    13.37263   15.56956  -14.15517
      H1    12.79718   15.59827  -14.96836
       H    18.10544   12.47927   -8.43832
       O    17.84979   13.09028   -9.11423
      H1    18.62153   13.51680   -9.46155
       H    17.34516   18.80134  -16.16926
       O    17.57152   19.48501  -15.55580
      H1    18.40229   19.20291  -15.12350
       H    19.26751   15.33217  -11.29972
       O    19.57948   15.02357  -10.42051
      H1    19.14419   15.62829   -9.80186
       H    16.16009    8.72137  -10.21861
       O    16.92592    8.30321  -10.60853
      H1    16.90611    8.18685  -11.55858
       H    12.61432   12.66005  -18.68594
       O    12.50120   12.08559  -19.42900
      H1    13.33838   11.62542  -19.34203
       H    19.08546   16.07635  -13.86654
       O    18.26989   15.97044  -14.40064
      H1    18.35970   15.05449  -14.79343
       H    15.38649    6.98430  -15.60930
       O    15.69515    7.11689  -14.68340
      H1    15.11327    7.65820  -14.15181
       H    19.79245   11.73222  -12.01500
       O    19.31498   11.80301  -12.81202
      H1    18.41292   11.89639  -12.58411
       H    14.76162   18.49490  -15.18138
       O    14.33417   17.93575  -15.88001
      H1    14.13735   17.10299  -15.36737
       H    11.07198   13.27136  -17.21740
       O    11.95827   13.24824  -16.82282
      H1    11.95691   12.64415  -16.11823
       H    19.15866    8.51744  -14.57451
       O    19.90447    8.80156  -13.99389
      H1    19.79688    9.69110  -13.58217
       H    16.63182   10.51461  -12.97771
       O    16.56632    9.65094  -13.41325
      H1    16.18669    9.70086  -14.29790
       H    15.94575   15.28043  -18.26639
       O    16.35139   14.44733  -17.94055
      H1    17.31182   14.51604  -18.08530

