87
frame 2 | Written by MDAnalysis XYZWriter (release 2.4.3)
       H     9.21222    6.19370   12.20835
       O     8.82880    6.58450   11.40750
      H1     8.39477    7.41674   11.63620
       H     5.67350    4.07601   11.14355
       O     4.74535    3.94614   11.34277
      H1     4.73042    3.12313   11.88931
       H     2.79568    3.47169    8.84874
       O     3.77898    3.61644    8.91705
      H1     4.06752    3.49508    9.84019
       H     6.42569    5.17574    4.80497
       O     5.88510    4.62938    5.39357
      H1     6.00767    5.08534    6.29897
       H     5.31425    3.43091   14.88012
       O     5.50709    2.46322   14.90302
      H1     5.12618    2.12131   15.73133
       H     2.32757   -0.69367    9.97722
       O     2.33420   -0.19360    9.17450
      H1     3.25997   -0.04085    8.92805
       H     6.76399   -0.46740    6.50013
       O     6.52711    0.35262    6.92963
      H1     7.00637    0.36266    7.76609
       H     5.05554    6.20078   15.43375
       O     5.63272    5.76528   14.77812
      H1     5.19692    5.95693   13.96160
       H     2.68318   -0.31939   13.97735
       O     2.50464   -0.97849   14.68210
      H1     3.04944   -0.68725   15.41616
       H     7.48269    6.45183    7.66756
       O     6.66578    5.90682    7.80818
      H1     6.02697    6.45352    8.32702
       H     9.70056    1.23693   12.38657
       O     9.09807    0.51862   12.46702
      H1     8.45680    0.58082   11.78330
       H     6.31028    2.03580   12.79341
       O     6.93390    2.06380   12.07251
      H1     6.37557    1.61491   11.34607
       H     8.86239    4.32112   14.45741
       O     8.58177    4.89113   15.23464
      H1     7.70376    5.22214   14.90649
       H     4.85129    1.00082    7.23255
       O     3.97401    1.40082    7.35182
      H1     4.04413    2.21468    7.85428
       H     1.23378    5.41907   12.79210
       O     1.71668    6.15330   13.05795
      H1     1.72750    6.04591   14.02967
       H     4.32338    5.53959   12.03390
       O     4.25702    6.41304   12.43439
      H1     3.29798    6.51980   12.66681
       H     5.84053   -0.41229   10.74619
       O     5.25674    0.34230   10.54067
      H1     4.42024    0.32200   11.10507
       H    10.20866    4.19126    7.10466
       O    10.40452    4.27942    8.05378
      H1     9.71927    3.90101    8.65500
       H     4.36048    8.04548   11.76383
       O     4.58737    8.64673   11.03629
      H1     5.59095    8.60806   10.97645
       H     0.31740    1.85539    8.71971
       O     1.11617    2.24073    9.11610
      H1     1.74317    1.54201    9.21918
       H     0.26337    1.04475   12.02865
       O     0.98966    1.67443   11.91970
      H1     0.95767    2.00974   10.99899
       H     2.59009    6.68330    8.68203
       O     1.62859    6.79008    8.74453
      H1     1.54420    7.66703    8.33323
       H    10.24594    3.14834   12.57060
       O     9.42627    3.56132   12.86451
      H1     8.88826    2.81216   12.81322
       H     4.45623    5.55559    9.10319
       O     4.31511    6.52978    9.04967
      H1     4.33616    6.91235    9.92163
       H     0.60533    7.45647   12.94269
       O    -0.06337    8.18470   12.89332
      H1    -0.61234    8.12736   13.63842
       H     4.32241    1.95038   13.62177
       O     3.96010    1.73539   12.72850
      H1     3.03063    1.86042   12.88931
       H    -0.73332    4.02987   11.54020
       O    -0.13463    4.03821   12.34212
      H1     0.30544    3.17589   12.36868
       H     8.09016    3.55020    9.96714
       O     8.60221    2.80697    9.69362
      H1     8.10707    2.11031    9.29436
       H     6.96830    5.37076    9.38169
       O     7.04735    4.85970   10.19618
      H1     7.70725    5.41583   10.64764

