87
frame 2 | Written by MDAnalysis XYZWriter (release 2.4.3)
       H    -1.83378    5.34218    0.62231
       O    -1.64328    4.57221    0.07844
      H1    -1.51563    3.79513    0.61037
       H    -7.65213    3.22041    7.49021
       O    -7.21155    3.93024    7.02332
      H1    -7.12793    3.61988    6.14429
       H    -9.91695    6.63847    4.83251
       O    -9.02478    6.51718    4.43997
      H1    -8.46052    6.47383    5.24875
       H    -6.90859    5.47738    1.73659
       O    -6.77037    5.30730    0.77048
      H1    -7.61443    4.92455    0.43632
       H    -3.61378    6.99946    1.04822
       O    -3.53505    6.17082    1.53867
      H1    -2.94015    6.34782    2.30127
       H    -3.80091    0.58990    3.23274
       O    -3.81397    1.43368    2.71011
      H1    -4.45527    1.37126    1.98057
       H    -5.09223    2.01972    0.06625
       O    -5.58583    1.62766    0.75837
      H1    -5.46437    0.68235    0.46721
       H    -4.43481    9.08054    1.66064
       O    -4.49215    9.36101    2.54808
      H1    -4.82147   10.27148    2.57881
       H    -4.57911    0.57739    7.02171
       O    -4.67122   -0.36811    7.19317
      H1    -5.58416   -0.46363    6.94089
       H    -5.20436    8.18037    5.29629
       O    -5.69447    8.11053    4.45025
      H1    -5.15395    8.69527    3.87169
       H    -8.19728    2.56110    2.69121
       O    -7.87227    1.82918    2.12865
      H1    -7.14447    2.13207    1.52792
       H    -0.86723    5.67062    3.85066
       O    -1.79252    5.96232    3.90954
      H1    -2.25123    5.18855    4.29871
       H    -2.07682    7.01491    8.59364
       O    -2.23814    7.03682    7.64068
      H1    -1.46542    6.61628    7.24751
       H    -7.68467    5.75339    7.24002
       O    -7.65028    6.69538    7.18434
      H1    -8.43520    7.01864    7.66800
       H    -5.31135    4.27830    7.24439
       O    -4.54560    4.27323    7.81209
      H1    -3.75052    4.21098    7.33267
       H    -1.92557    7.99233    3.96241
       O    -2.06281    8.89818    3.63562
      H1    -2.98212    8.87325    3.22663
       H    -7.75469   -0.05006    5.26222
       O    -8.18804    0.09912    4.39810
      H1    -7.79697    0.79601    3.86889
       H    -4.58000    2.82454    6.68064
       O    -5.02640    2.35925    5.93987
      H1    -4.55960    2.77480    5.18661
       H    -8.18204    9.22037    2.80893
       O    -8.13801    8.46167    2.21792
      H1    -8.37613    7.76570    2.85677
       H    -4.05598   -0.61919    5.45498
       O    -3.50637   -0.73001    4.67408
      H1    -2.88053   -1.45974    4.77311
       H    -1.53529    4.14973    7.92786
       O    -1.61255    3.87741    6.97936
      H1    -1.13510    4.67171    6.58908
       H    -8.13892    4.51360    4.04260
       O    -8.52879    3.62487    4.11485
      H1    -9.48678    3.77155    4.17475
       H    -0.75460    1.58855    0.66241
       O    -1.11675    2.12885    1.38089
      H1    -1.87665    1.55029    1.69321
       H    -4.97693    4.35876    0.27212
       O    -4.37816    4.00784   -0.41201
      H1    -3.48433    4.09229   -0.03571
       H    -1.13142    1.90377    6.82121
       O    -0.97706    0.96394    6.91232
      H1    -0.63576    0.76205    5.99894
       H    -4.74127    4.37846    3.89825
       O    -3.99813    3.81609    4.09369
      H1    -3.99163    3.05145    3.47727
       H    -7.16860    9.18603    4.67774
       O    -7.81483    9.97169    4.71540
      H1    -8.20480    9.72114    5.53402
       H    -5.03257    5.72650    2.71412
       O    -5.76841    5.56278    3.31376
      H1    -5.91370    6.44890    3.70099
       H    -5.47740    6.93627    6.99673
       O    -4.82828    7.62168    6.92184
      H1    -3.94571    7.25364    6.99990

