87
frame 0 | Written by MDAnalysis XYZWriter (release 2.4.3)
       H     9.26236  -13.80345    0.39795
       O     8.71009  -13.65800   -0.36220
      H1     8.99849  -12.77521   -0.74656
       H    13.33235  -11.01266    0.73359
       O    12.88502  -10.20050    0.84893
      H1    12.04851  -10.29688    0.46666
       H    13.59911   -4.74653   -4.27605
       O    14.02361   -4.07891   -3.70388
      H1    14.89777   -4.45728   -3.46419
       H    13.08559   -4.32338   -1.75189
       O    12.25893   -4.02130   -1.30400
      H1    11.63610   -3.99749   -2.05113
       H     7.89087  -11.07406   -1.73419
       O     8.79885  -11.31735   -1.82930
      H1     9.12918  -10.89808   -2.63756
       H     7.13394   -5.36359    2.25314
       O     7.55519   -5.39625    1.35732
      H1     6.89005   -5.13954    0.73120
       H    10.10944   -9.09549    0.01846
       O    10.54591   -9.97883   -0.12868
      H1     9.91712  -10.38331   -0.73735
       H     8.80625   -4.29829   -0.36438
       O     8.28018   -3.88488   -1.00984
      H1     8.80148   -3.15378   -1.41735
       H    13.17017   -8.91129   -0.35984
       O    13.49058   -8.13678   -0.84289
      H1    14.44591   -8.21079   -1.00327
       H    10.04795  -10.56172   -7.54372
       O    10.62511   -9.78135   -7.49018
      H1    11.42834   -9.92666   -8.00907
       H     9.85423  -10.56945    1.98645
       O     9.73776  -10.46644    2.92444
      H1    10.63744  -10.18060    3.19934
       H     9.49186   -7.75127   -1.08750
       O     9.49053   -7.85295   -2.01688
      H1    10.21383   -8.48640   -2.17389
       H    12.46481   -8.44326   -2.28945
       O    11.92811   -8.94428   -2.95427
      H1    11.95430   -9.86694   -2.74773
       H    12.27238  -10.03876   -6.03303
       O    12.98552  -10.15759   -5.37848
      H1    12.82779   -9.60710   -4.59702
       H    13.77837   -8.89128   -5.98910
       O    14.45464   -8.23692   -6.30112
      H1    14.16316   -7.33172   -6.05476
       H     8.47118   -6.65930   -6.58142
       O     7.49132   -6.68194   -6.72388
      H1     7.33398   -7.24770   -7.47442
       H    13.01808   -5.26833   -0.12298
       O    13.57827   -5.77546    0.48635
      H1    13.65891   -6.60607   -0.01867
       H     6.35064   -6.08432   -2.44269
       O     6.36549   -5.23629   -2.87825
      H1     7.21585   -4.99333   -2.56467
       H     9.67348   -4.43201   -3.50170
       O    10.12974   -3.56775   -3.38087
      H1     9.48314   -2.82003   -3.33611
       H    12.07148   -6.37604    1.54043
       O    11.47986   -6.86668    2.16809
      H1    11.87113   -7.71769    2.42311
       H     9.96612   -7.52793    1.38853
       O     9.30284   -7.67673    0.74085
      H1     8.53889   -7.19329    0.99408
       H    10.31904   -7.77991   -6.23674
       O    10.25616   -6.83932   -6.32086
      H1    10.18809   -6.47575   -5.47015
       H    13.85316   -5.51686   -6.65042
       O    13.24999   -5.70028   -5.94899
      H1    12.38208   -5.85590   -6.34440
       H     6.65492   -8.41937   -5.62537
       O     6.20592   -9.16776   -5.19673
      H1     6.81602   -9.87810   -4.93983
       H     7.55639   -7.81729   -1.78818
       O     6.56931   -7.59375   -1.66417
      H1     6.21024   -8.43895   -1.32196
       H    12.64965  -11.99803   -2.68089
       O    11.79578  -11.59370   -2.26651
      H1    11.52302  -12.42884   -1.82837
       H     8.05559   -5.80136   -3.91678
       O     9.02648   -5.87951   -3.91986
      H1     9.20691   -6.67465   -3.34825
       H     8.17158  -11.65048   -5.78990
       O     7.77417  -11.53541   -4.89435
      H1     7.53936  -12.44614   -4.60398
       H     5.39718  -10.02622   -0.09319
       O     5.83541  -10.15086   -0.95695
      H1     5.11338  -10.56371   -1.46534

