87
frame 2 | Written by MDAnalysis XYZWriter (release 2.4.3)
       H    14.66793  -12.69170    3.94983
       O    13.85533  -12.50521    3.39226
      H1    13.17457  -13.16875    3.70653
       H    10.92100  -16.75466   11.67842
       O    11.27832  -17.07236   10.78886
      H1    10.54971  -17.51241   10.28132
       H    12.56870  -18.51076   11.00072
       O    13.04103  -19.25019   11.38538
      H1    12.90501  -19.94479   10.70108
       H    11.06149  -14.01108    3.53510
       O    11.77213  -14.41027    4.09271
      H1    11.78520  -15.34818    3.85289
       H     9.47671  -14.08818    5.95495
       O    10.30646  -14.13020    6.36940
      H1    10.97115  -14.38967    5.68871
       H     9.05416  -17.74179    1.60952
       O     9.31915  -16.81243    1.79708
      H1     9.25260  -16.78909    2.73106
       H    15.98725  -12.77802    6.08554
       O    15.89464  -12.91914    5.11609
      H1    16.55696  -12.27623    4.75704
       H    20.11985  -15.01236    5.22045
       O    19.66379  -14.18172    4.96039
      H1    19.02464  -14.50470    4.30618
       H    19.02121  -17.83766    1.95149
       O    18.78195  -18.67947    2.46052
      H1    17.79290  -18.84653    2.36534
       H    13.73690  -13.33617    9.85377
       O    13.63694  -12.48107    9.46798
      H1    12.76943  -12.43586    9.05529
       H    13.87838  -18.41544   -2.21329
       O    13.67709  -17.67497   -1.64189
      H1    13.54288  -17.90154   -0.72215
       H     9.60585  -17.55817    8.39785
       O     9.55123  -18.14180    9.20091
      H1     8.85269  -17.82059    9.76991
       H    15.29510  -12.26689    7.98559
       O    16.00899  -11.77228    7.54220
      H1    16.76025  -11.50064    8.16034
       H    17.32528  -18.27744    8.20161
       O    18.00640  -18.72670    8.74985
      H1    17.51898  -19.13931    9.49035
       H    14.64889  -15.03962   11.08883
       O    15.26541  -14.38961   10.76360
      H1    16.05566  -14.95432   10.45858
       H    12.66770  -19.42918    8.33340
       O    13.59481  -19.12541    8.22492
      H1    14.12510  -19.91453    8.38682
       H    15.94270  -15.84145    3.79575
       O    15.11759  -15.27084    3.70378
      H1    15.25865  -14.59783    4.42093
       H    12.27197  -16.11609    8.94574
       O    12.60601  -16.63684    8.17664
      H1    12.88536  -17.46708    8.49546
       H    12.91087  -18.96815    1.23388
       O    13.39789  -18.13529    0.97349
      H1    14.35914  -18.34441    1.17507
       H    11.54586  -18.57360    3.75221
       O    11.36991  -19.52446    3.81439
      H1    11.68661  -19.83369    4.68202
       H    17.92766  -14.76683    9.65137
       O    17.64211  -15.65265    9.46847
      H1    17.44335  -16.03748   10.37641
       H    13.93824  -18.27398    4.69672
       O    14.31798  -18.90934    5.31392
      H1    13.70472  -18.84767    6.07807
       H    17.28110  -15.76131    1.52909
       O    16.36712  -15.90694    1.40490
      H1    15.89966  -15.45686    2.14603
       H    17.01030  -16.70263    5.44749
       O    17.38582  -16.59600    4.51244
      H1    17.37566  -17.47867    4.15585
       H    16.30136  -17.72640    1.28000
       O    16.15098  -18.64031    1.58225
      H1    16.11267  -19.14346    0.75387
       H    13.01800  -17.11184    2.63298
       O    12.98593  -17.07546    3.64450
      H1    13.62187  -16.40063    3.78959
       H    16.46072  -16.24093    7.72912
       O    16.45341  -17.01925    7.14963
      H1    15.60366  -17.12231    6.72497
       H     8.39320  -17.95028    4.46817
       O     8.77068  -17.11176    4.59816
      H1     9.19762  -17.14748    5.48047
       H     9.95338  -15.81733    6.96228
       O    10.12334  -16.76327    6.95822
      H1    11.05994  -16.86833    7.22196

