87
frame 3 | Written by MDAnalysis XYZWriter (release 2.4.3)
       H    13.66142    2.63928  -17.51418
       O    14.60465    2.82520  -17.55142
      H1    14.79754    2.79482  -18.49184
       H    14.71840   -1.82802  -16.64036
       O    14.61572   -0.86336  -16.76575
      H1    15.48396   -0.53361  -16.66716
       H    10.28092   -7.43867  -16.25806
       O    10.39706   -7.60338  -17.19438
      H1    10.26905   -6.73581  -17.61315
       H    16.73848   -6.67725  -18.90671
       O    17.37030   -7.33850  -18.85274
      H1    17.79968   -7.04451  -18.03391
       H    12.26919   -0.06274  -18.76742
       O    12.45366    0.29259  -17.92427
      H1    13.25521   -0.06738  -17.51538
       H     7.38938    0.28323  -18.65805
       O     6.56215    0.43881  -19.14924
      H1     5.96202    0.68563  -18.45179
       H     9.56379   -1.69075  -19.99302
       O    10.20129   -1.18513  -19.47693
      H1    10.72053   -1.83354  -18.98146
       H     9.85771   -0.14723  -17.78189
       O     9.45131    0.52083  -17.22156
      H1    10.00661    0.55245  -16.41142
       H    14.11281   -4.87276  -13.51747
       O    13.96874   -4.57416  -14.37571
      H1    12.96469   -4.61981  -14.62903
       H    10.43164   -4.44053  -15.49943
       O    11.27024   -4.87354  -15.38098
      H1    10.99672   -5.67488  -14.92181
       H    17.47762    0.45574  -14.91143
       O    17.37735   -0.20219  -15.60505
      H1    17.31863    0.39598  -16.35481
       H    16.38206   -3.17674  -17.53683
       O    15.45683   -3.35021  -17.47116
      H1    15.30202   -4.27467  -17.33016
       H    12.52570   -5.62309  -18.66095
       O    13.45994   -5.82853  -18.56146
      H1    13.90742   -5.75025  -19.43975
       H    12.69871   -0.84151  -14.34799
       O    11.99397   -0.29203  -14.79839
      H1    12.40467   -0.28052  -15.65912
       H    11.80302   -8.56824  -17.44014
       O    12.46516   -9.29929  -17.51387
      H1    12.72631   -9.25761  -18.41329
       H    18.47496   -4.82746  -18.14304
       O    18.44357   -3.87207  -18.34567
      H1    19.12048   -3.48929  -17.71647
       H    20.27878   -0.12999  -18.44056
       O    19.68585   -0.23610  -17.72876
      H1    18.80622   -0.52126  -18.14087
       H    16.44913   -1.40248  -19.14817
       O    17.33633   -1.26354  -18.89118
      H1    17.82969   -1.90037  -19.42175
       H    11.87502    1.81808  -17.01509
       O    11.92375    2.58335  -16.46453
      H1    11.14402    2.79922  -15.90420
       H     8.90185   -2.45052  -15.26980
       O     8.76318   -3.23128  -15.86193
      H1     8.02281   -3.67748  -15.33844
       H     9.57006   -4.95198  -18.70730
       O    10.42306   -5.41946  -18.83772
      H1    10.15658   -5.91328  -19.61851
       H    14.21408   -8.54709  -17.32462
       O    15.11336   -8.64726  -16.97571
      H1    15.34236   -7.69992  -16.84049
       H    17.71730   -1.86498  -14.98138
       O    18.16305   -2.70068  -14.65189
      H1    18.59127   -2.41804  -13.84758
       H    16.54392   -5.74856  -15.54388
       O    16.00713   -5.78225  -16.37999
      H1    15.18593   -5.35355  -16.10256
       H    14.74545   -1.84141  -13.39906
       O    13.99211   -1.41435  -13.10198
      H1    14.10884   -0.50068  -12.76211
       H    14.20652   -2.94129  -18.75036
       O    14.12059   -2.37683  -19.58683
      H1    13.57607   -2.96436  -20.17036
       H    11.29639   -4.03214  -18.39617
       O    11.51459   -3.15129  -18.03819
      H1    11.61423   -3.33294  -17.08399
       H    18.01483    2.31542  -17.59248
       O    17.41881    2.31412  -16.81258
      H1    16.54867    2.48443  -17.21458
       H     8.16817   -3.16539  -17.72818
       O     7.97645   -3.75255  -18.47501
      H1     7.91553   -3.23455  -19.29214

