87
frame 3 | Written by MDAnalysis XYZWriter (release 2.4.3)
       H     6.95627    3.01458    5.00542
       O     7.40480    2.19838    4.75904
      H1     7.27343    1.56148    5.45421
       H     4.62240    4.44269    2.19909
       O     4.75547    3.48372    2.32082
      H1     3.80889    3.22265    2.29156
       H     6.59567   10.57569    3.44639
       O     7.19802   10.44442    2.63901
      H1     6.71746    9.77347    2.06343
       H     3.78907    6.03818    5.81414
       O     3.37865    6.14591    4.95882
      H1     2.99828    5.32116    4.72423
       H     4.10015   -0.12950    3.82687
       O     3.61414    0.34735    4.53853
      H1     3.75374    1.27047    4.50665
       H     6.93011    4.89149    4.45396
       O     6.41349    4.60368    5.17606
      H1     6.63171    5.25512    5.89512
       H    12.83047    5.12950    3.83326
       O    12.70967    4.17882    3.65739
      H1    11.81409    3.96010    3.96694
       H     9.42300    7.66285    4.20913
       O     9.16281    6.89186    4.72410
      H1     9.72209    6.12726    4.45016
       H     1.32083    6.99589    1.27093
       O     2.00102    6.35709    1.55734
      H1     2.63850    6.88257    2.02336
       H     5.08664    2.90461    0.57674
       O     5.53357    2.75424   -0.27365
      H1     5.23331    3.35156   -0.98775
       H    11.63930    7.79919    7.15809
       O    11.49387    8.39016    6.35577
      H1    10.51202    8.33670    6.28801
       H    10.83535    4.83310    1.23383
       O    10.61598    3.91726    1.02544
      H1    11.17641    3.69130    0.22716
       H     7.04267   -0.16631    6.28480
       O     6.96710    0.50724    6.97828
      H1     7.73657    0.43717    7.55736
       H     8.23925    6.08097    3.40969
       O     7.79497    5.47410    2.81426
      H1     8.40544    5.49734    2.09103
       H     8.57293    7.48413    6.60379
       O     8.68408    7.73540    7.51547
      H1     8.12371    8.51757    7.56580
       H     8.25461    7.24713    0.39674
       O     8.93228    6.61022    0.19975
      H1     8.49161    5.75535   -0.04518
       H     6.49624    1.64268    1.43893
       O     6.70325    1.11083    2.16774
      H1     6.67595    1.64040    3.00518
       H     4.35271    7.92306    2.62223
       O     3.75977    8.61485    2.97646
      H1     3.59549    9.15649    2.22095
       H     7.42637    6.52920    7.64262
       O     6.76010    5.85227    7.49519
      H1     5.91739    6.31522    7.70834
       H     5.50590    1.38451    7.65435
       O     4.58291    1.60450    7.73044
      H1     4.52431    2.43473    8.19605
       H     5.01022   11.34616    3.77331
       O     5.21479   10.60921    4.34461
      H1     4.76590    9.85772    3.89506
       H    11.24284    3.77571    7.12900
       O    11.18233    4.07502    8.02847
      H1    10.34072    3.64929    8.27714
       H    10.36325    6.63246    1.38523
       O    11.03416    6.45636    2.08036
      H1    11.74349    7.06708    1.94389
       H     3.86934    5.32016    8.28855
       O     3.94360    6.30842    8.12725
      H1     4.21403    6.71712    8.97069
       H     3.94025    2.76138    6.36535
       O     3.78081    3.32496    5.61733
      H1     4.60275    3.69996    5.34634
       H     4.72927    6.13216    3.54508
       O     5.09304    6.06238    2.64783
      H1     6.05091    5.98635    2.80609
       H     7.26981    3.40585   -0.38796
       O     8.13471    3.86226   -0.38967
      H1     8.82631    3.51207    0.21318
       H    10.40923    2.84840    4.75762
       O    10.01560    3.69949    4.59913
      H1     9.09512    3.48227    4.61579
       H     7.28205    5.19880    9.37483
       O     7.56227    4.84879   10.24061
      H1     7.57109    5.68072   10.76232

