87
frame 2 | Written by MDAnalysis XYZWriter (release 2.4.3)
       H    -0.71873    9.81902    7.93916
       O    -1.67363    9.78370    8.13940
      H1    -1.96120    8.92697    7.90167
       H     5.67350    4.07601   11.14355
       O     4.74535    3.94614   11.34277
      H1     4.73042    3.12313   11.88931
       H     0.98800    4.24092    3.22869
       O     0.96290    5.14567    3.49591
      H1     1.05773    5.74011    2.71278
       H     2.79568    3.47169    8.84874
       O     3.77898    3.61644    8.91705
      H1     4.06752    3.49508    9.84019
       H     0.24051    6.75365    5.81787
       O    -0.07151    6.24108    6.61197
      H1     0.69500    6.25898    7.20413
       H     3.67638    5.37379    5.20022
       O     3.04086    6.02431    4.82893
      H1     2.31429    5.52743    4.39723
       H    -1.56313    5.21139   10.19451
       O    -1.87989    4.28937   10.19377
      H1    -2.84766    4.54916   10.40720
       H     6.42569    5.17574    4.80497
       O     5.88510    4.62938    5.39357
      H1     6.00767    5.08534    6.29897
       H     1.23907    9.52328    6.99309
       O     1.18640    9.54790    7.92856
      H1     1.89864   10.14770    8.22675
       H    -0.53940    7.35505   10.23818
       O    -1.41421    6.89398   10.19584
      H1    -2.08642    7.33242   10.66328
       H     4.25521   11.38406    7.94259
       O     3.29153   11.46958    7.99640
      H1     3.19241   11.72444    8.91671
       H     7.48269    6.45183    7.66756
       O     6.66578    5.90682    7.80818
      H1     6.02697    6.45352    8.32702
       H    -2.07682    7.01491    8.59364
       O    -2.23814    7.03682    7.64068
      H1    -1.46542    6.61628    7.24751
       H     4.85129    1.00082    7.23255
       O     3.97401    1.40082    7.35182
      H1     4.04413    2.21468    7.85428
       H     0.97854    9.95342   12.99554
       O     1.73026   10.59269   13.01950
      H1     1.32026   11.45319   12.97622
       H     1.23378    5.41907   12.79210
       O     1.71668    6.15330   13.05795
      H1     1.72750    6.04591   14.02967
       H     4.32338    5.53959   12.03390
       O     4.25702    6.41304   12.43439
      H1     3.29798    6.51980   12.66681
       H    -1.53529    4.14973    7.92786
       O    -1.61255    3.87741    6.97936
      H1    -1.13510    4.67171    6.58908
       H     4.36048    8.04548   11.76383
       O     4.58737    8.64673   11.03629
      H1     5.59095    8.60806   10.97645
       H     0.31740    1.85539    8.71971
       O     1.11617    2.24073    9.11610
      H1     1.74317    1.54201    9.21918
       H     0.26337    1.04475   12.02865
       O     0.98966    1.67443   11.91970
      H1     0.95767    2.00974   10.99899
       H     2.59009    6.68330    8.68203
       O     1.62859    6.79008    8.74453
      H1     1.54420    7.66703    8.33323
       H     2.29271    9.23381    4.79035
       O     2.02913    8.62684    5.48128
      H1     2.36031    7.74292    5.25988
       H     4.45623    5.55559    9.10319
       O     4.31511    6.52978    9.04967
      H1     4.33616    6.91235    9.92163
       H     0.60533    7.45647   12.94269
       O    -0.06337    8.18470   12.89332
      H1    -0.61234    8.12736   13.63842
       H     4.31506    9.81670   12.42101
       O     4.80600   10.01624   13.24292
      H1     4.85112   10.91803   13.36830
       H    -0.73332    4.02987   11.54020
       O    -0.13463    4.03821   12.34212
      H1     0.30544    3.17589   12.36868
       H     2.66738   12.85102   10.56228
       O     3.15364   12.03227   10.68341
      H1     2.59686   11.46217   11.25987
       H     6.96830    5.37076    9.38169
       O     7.04735    4.85970   10.19618
      H1     7.70725    5.41583   10.64764

