87
frame 4 | Written by MDAnalysis XYZWriter (release 2.4.3)
       H    -1.55818   17.00369   -3.64326
       O    -2.09790   16.72708   -2.90540
      H1    -1.95106   17.39112   -2.23290
       H     0.30940   14.25010   -3.23630
       O     0.17013   14.91874   -2.52793
      H1    -0.44093   15.59378   -2.90865
       H     1.74062   11.53366   -5.54095
       O     2.61896   11.26470   -5.93737
      H1     3.05583   12.01055   -6.37290
       H    -0.54803    7.79102   -3.79173
       O    -0.18401    7.46801   -4.61595
      H1    -0.37010    8.07722   -5.34451
       H    -4.01087    9.14488   -4.61643
       O    -4.16248    9.88284   -3.97902
      H1    -4.91617    9.50302   -3.55042
       H    -1.20132   17.89265   -5.22666
       O    -0.38714   17.33778   -5.08819
      H1     0.18352   17.97567   -4.62406
       H     0.90830    8.88881   -9.04418
       O     0.21892    8.37951   -9.57921
      H1     0.56180    7.46568   -9.62871
       H     1.19381   14.67514   -8.01848
       O     0.95892   14.39302   -8.91508
      H1     1.74861   14.55270   -9.48240
       H    -3.82084    9.74904   -9.13797
       O    -4.60215   10.24503   -8.80459
      H1    -4.23486   11.12871   -8.58590
       H    -0.42448   12.22201   -4.97319
       O    -0.06372   12.43750   -5.85630
      H1    -0.76427   12.32287   -6.54562
       H    -2.76526   11.06038   -1.35952
       O    -2.54048   10.33323   -1.88545
      H1    -3.30824   10.19296   -2.54051
       H     3.37268   16.20619   -7.24044
       O     4.15151   15.87364   -7.70446
      H1     4.21941   14.87884   -7.47867
       H    -1.05272   11.32259  -10.43756
       O    -1.12444   11.06018  -11.37341
      H1    -1.50261   11.95484  -11.59196
       H    -0.14222   14.76497    0.41418
       O    -0.55043   14.04646   -0.05403
      H1    -0.34063   14.28747   -1.00039
       H     3.31583   10.56152   -4.30607
       O     3.69692   10.09867   -3.58731
      H1     2.99682    9.83683   -3.01489
       H     0.33667   11.26380   -8.38324
       O    -0.31923   11.89620   -8.73984
      H1     0.15545   12.68751   -8.95422
       H    -1.65172    9.71325   -7.05073
       O    -1.43196    9.36730   -6.15268
      H1    -2.15468    8.71938   -5.89529
       H     4.21859   12.69966   -3.73977
       O     5.06482   12.84511   -4.21372
      H1     5.75238   12.59780   -3.59837
       H     4.95007    9.44468   -7.94318
       O     5.11383   10.32900   -7.55613
      H1     4.45087   10.61062   -6.94662
       H     2.41678   14.32917   -3.00827
       O     2.17843   13.68670   -3.66959
      H1     2.35248   14.30915   -4.41096
       H     4.53944   13.24687   -6.16184
       O     4.23426   13.17548   -7.06029
      H1     5.01479   13.07331   -7.63628
       H     0.77398   15.74078   -5.94804
       O     1.38707   15.03717   -6.20975
      H1     0.90362   14.27106   -5.99331
       H    -2.79397   14.93739   -6.08520
       O    -2.80800   15.05718   -7.03852
      H1    -1.99977   15.53094   -7.29119
       H     0.12781   11.72159   -2.49578
       O    -0.47454   11.67977   -3.28266
      H1    -1.27824   11.36894   -2.83249
       H    -4.26756   13.99777   -3.89368
       O    -3.64340   14.56768   -4.29717
      H1    -3.26171   15.05364   -3.54114
       H     0.26580    9.70267   -6.94724
       O     1.03664    9.80944   -7.50646
      H1     1.66869   10.29435   -6.93007
       H    -3.71707   13.05001   -9.17446
       O    -3.39062   12.70718   -8.32003
      H1    -3.15383   13.50391   -7.80334
       H     0.41450    8.70846   -1.98756
       O    -0.46271    8.33538   -2.13763
      H1    -1.20746    8.95446   -2.13307
       H    -0.26915   15.61524   -8.74698
       O    -0.81765   16.34945   -8.34973
      H1    -0.43755   17.16244   -8.72032

