87
frame 3 | Written by MDAnalysis XYZWriter (release 2.4.3)
       H    -8.19370    7.73539  -18.18674
       O    -8.79289    8.53058  -18.03834
      H1    -9.29196    8.31131  -17.20791
       H    -7.03205    4.80812  -18.85191
       O    -6.17076    4.96009  -18.42105
      H1    -5.43516    4.57582  -18.91942
       H   -10.17266   -0.87483  -10.69208
       O   -10.37257   -0.37520  -11.49427
      H1   -11.09827   -0.95786  -11.86860
       H   -12.07995    7.88133  -18.67242
       O   -11.32735    8.00095  -19.26045
      H1   -10.60630    8.25288  -18.67231
       H    -9.12144   -0.09855  -16.67936
       O    -9.73659   -0.76461  -16.90239
      H1   -10.52911   -0.30375  -17.24972
       H   -13.69508    1.61344  -15.39233
       O   -14.28963    2.18651  -15.91429
      H1   -15.09801    2.47850  -15.46774
       H   -11.29449    6.35949  -19.31276
       O   -11.40082    5.39992  -19.13131
      H1   -11.94742    5.27981  -18.37023
       H   -13.58774    6.78029  -17.25643
       O   -13.54889    7.60582  -17.79009
      H1   -13.77581    8.34197  -17.14536
       H    -5.99698    6.75318  -18.26073
       O    -5.89578    7.70001  -18.44027
      H1    -5.40328    7.95910  -17.66432
       H    -6.35678    5.62841  -15.70473
       O    -5.95246    6.47490  -15.41055
      H1    -5.05128    6.27071  -15.40996
       H   -11.12740    7.05582  -12.03375
       O   -10.67300    6.23924  -11.81986
      H1    -9.72240    6.49815  -11.74176
       H    -7.64114    0.96605  -12.42271
       O    -7.98430    0.14382  -12.90105
      H1    -8.88767    0.04018  -12.55174
       H    -8.45821   -1.08676  -18.85492
       O    -8.62435   -1.50119  -19.71525
      H1    -8.11756   -2.37311  -19.63857
       H    -7.40568    8.13040  -15.06053
       O    -7.78176    8.28325  -14.23592
      H1    -7.56445    7.52081  -13.65376
       H   -11.98176    3.10384  -11.34527
       O   -11.11063    3.39969  -11.58591
      H1   -11.19774    4.37882  -11.65908
       H   -10.21297    3.28991  -10.11379
       O    -9.77333    3.06221   -9.24099
      H1   -10.29675    2.32619   -8.89462
       H   -10.45929    4.01201  -16.12013
       O    -9.63776    3.74642  -15.70365
      H1    -9.89827    3.20027  -14.96372
       H    -6.07872    0.55164  -16.93521
       O    -6.78932    1.18249  -17.16756
      H1    -6.50918    2.04731  -16.80813
       H    -8.38476    5.73176  -20.04024
       O    -8.70602    5.44513  -19.19913
      H1    -9.58412    5.12592  -19.27393
       H    -9.23984    1.25526  -13.36423
       O    -9.96502    1.82240  -13.70336
      H1   -10.26144    2.41183  -12.97180
       H    -6.61393    4.16274  -17.11649
       O    -6.87471    3.80374  -16.18407
      H1    -7.82925    3.82523  -16.19473
       H    -9.26849    7.75443  -14.97509
       O    -9.82123    7.40621  -15.69975
      H1   -10.61593    7.11879  -15.34099
       H   -12.42704   -1.03529  -18.24284
       O   -12.48523   -1.06069  -17.27922
      H1   -13.16097   -1.72141  -17.13826
       H   -13.97670    4.49833  -18.26977
       O   -13.52735    4.57077  -17.37649
      H1   -13.84749    3.77544  -16.95045
       H    -7.26601    5.99973  -11.31193
       O    -7.79760    6.62203  -11.78600
      H1    -7.75217    7.49821  -11.22938
       H   -12.03887   -0.26243  -15.25354
       O   -12.33041    0.46670  -14.65092
      H1   -11.52629    0.84884  -14.28105
       H   -12.77579    6.48389  -13.88308
       O   -12.87044    7.18463  -14.52329
      H1   -12.61306    7.93408  -13.97793
       H    -7.90474    2.71246  -10.86995
       O    -7.18769    2.35489  -11.37492
      H1    -7.18345    2.85996  -12.21245
       H    -6.50474    4.06991  -14.43937
       O    -6.57556    4.12542  -13.47223
      H1    -6.86903    5.04761  -13.36886

