87
frame 3 | Written by MDAnalysis XYZWriter (release 2.4.3)
       H    18.17094  -12.31347    0.90915
       O    18.78708  -11.59786    0.68261
      H1    19.22725  -11.48309    1.53881
       H    13.67968   -4.64549    3.46784
       O    13.68560   -5.04008    4.43957
      H1    14.50252   -5.60213    4.46121
       H    17.26948  -10.29075    0.82034
       O    16.89134   -9.40594    0.90543
      H1    16.34457   -9.32779    1.68929
       H    17.96632  -11.56657    3.51844
       O    17.01110  -11.59785    3.39615
      H1    16.63390  -10.73950    3.62583
       H    18.90156  -11.44919    7.62251
       O    18.12693  -11.31384    8.24109
      H1    18.33820  -11.71020    9.08911
       H    15.79611  -12.99896    6.10573
       O    15.87278  -13.44214    5.24671
      H1    16.31462  -12.80445    4.66222
       H    13.47444   -9.25771    6.69956
       O    13.31657  -10.19474    6.84973
      H1    14.12447  -10.66815    6.94703
       H    14.67621   -9.49837    3.54932
       O    15.43457   -9.10838    3.01137
      H1    15.67832   -8.35602    3.54611
       H    19.03180   -3.78504    6.59455
       O    18.72503   -2.92167    6.87854
      H1    17.99353   -3.15088    7.51814
       H    18.88291   -6.50611   -0.79985
       O    18.17060   -5.86738   -1.02889
      H1    18.49014   -4.99150   -0.59987
       H    16.94250   -6.54267    4.54087
       O    15.99070   -6.64182    4.77850
      H1    15.99796   -7.18458    5.54869
       H    14.06763   -3.66653    5.15503
       O    14.45165   -2.82528    5.46119
      H1    15.33384   -2.85912    5.09281
       H    18.07518   -5.61510   -2.86524
       O    18.26628   -5.53164   -3.82717
      H1    17.55329   -4.89483   -4.08566
       H    17.04119   -1.65692    4.26274
       O    17.01752   -2.56635    4.62458
      H1    17.66972   -2.54270    5.36344
       H    16.64135   -4.42412    8.77364
       O    17.24272   -3.68225    8.90961
      H1    17.98792   -3.97208    9.46755
       H    15.99552   -3.75910    0.57745
       O    15.17549   -3.39189    0.93132
      H1    14.62937   -3.60032    0.21197
       H    19.00601   -3.85830    3.06065
       O    18.11895   -4.13446    2.85689
      H1    17.61344   -3.67668    3.56742
       H    14.72531   -5.20180    7.75417
       O    15.60103   -5.54966    8.07481
      H1    15.79394   -6.37221    7.59304
       H    12.69420   -5.52437    1.67271
       O    12.09129   -4.78151    1.93729
      H1    11.70110   -5.00855    2.78673
       H    12.38802   -7.44279    6.46293
       O    13.21903   -7.38034    5.91544
      H1    12.86470   -7.00648    5.08958
       H    18.20757   -8.60915    1.72405
       O    19.00529   -8.22136    2.19915
      H1    19.49675   -7.73616    1.49544
       H    14.04845   -7.51957    1.91057
       O    13.86580   -6.83073    1.31264
      H1    14.49266   -6.85552    0.60285
       H    18.84041   -6.90906    3.44402
       O    18.70669   -6.31946    4.17365
      H1    18.59348   -5.55983    3.62969
       H    18.91028   -2.66434    0.06252
       O    18.02340   -3.11739    0.13464
      H1    18.12708   -3.37053    1.09774
       H    19.63301   -8.48909    7.47192
       O    19.06782   -7.88295    7.96642
      H1    19.12195   -6.97169    7.60393
       H    16.41158   -8.40748    8.23311
       O    16.42913   -7.98885    7.33717
      H1    17.32601   -7.68529    7.34199
       H    16.60043   -6.92340   -0.61352
       O    15.84190   -7.45178   -0.71197
      H1    16.08752   -8.26063   -0.27605
       H    18.92356  -11.35689   -2.77464
       O    19.15697  -10.58358   -2.30956
      H1    19.12812  -10.80330   -1.37622
       H    19.50088   -8.40414    9.58136
       O    19.48056   -8.92681   10.44418
      H1    19.79552   -9.81469   10.09679

