87
frame 3 | Written by MDAnalysis XYZWriter (release 2.4.3)
       H    13.66142    2.63928  -17.51418
       O    14.60465    2.82520  -17.55142
      H1    14.79754    2.79482  -18.49184
       H    18.59319    4.25802   -9.23358
       O    18.84410    5.22122   -9.20571
      H1    18.28609    5.67941   -9.82787
       H    16.20339   12.53283  -12.16175
       O    17.12261   12.71688  -12.36880
      H1    17.61788   12.62249  -11.55025
       H    15.90893   10.61430   -9.88021
       O    15.81749    9.83970  -10.46374
      H1    14.89685    9.70799  -10.35690
       H    13.17978    8.48004  -15.34886
       O    13.28550    9.26442  -15.88790
      H1    13.16382    8.99936  -16.78422
       H    12.53944    5.37919  -14.12296
       O    12.86792    4.65809  -13.51630
      H1    12.59076    4.90490  -12.63699
       H    19.44128    9.85644   -8.28600
       O    19.77326    9.01334   -8.64431
      H1    18.90896    8.72342   -9.04581
       H    17.18794   13.79899  -15.42479
       O    17.95247   13.45731  -14.98396
      H1    17.68876   13.17769  -14.10030
       H    18.26321    7.33024  -15.53112
       O    19.10830    7.76670  -15.89927
      H1    19.57307    6.99559  -16.30928
       H    17.80553   10.30588  -17.66590
       O    16.84432   10.55414  -17.72092
      H1    16.82290   11.49920  -18.04355
       H    11.65470    6.17705  -16.38118
       O    12.32702    6.40129  -15.79363
      H1    13.18747    6.06757  -16.03868
       H    12.68734    9.69605  -13.20056
       O    11.69945    9.77478  -13.10240
      H1    11.47687    8.94650  -12.59558
       H    14.80212   10.16498  -15.65076
       O    15.51667   10.78957  -15.45841
      H1    16.04590   10.76276  -16.30031
       H    15.34871    7.63764  -19.41520
       O    15.49871    6.73297  -19.17323
      H1    16.40709    6.51365  -19.16282
       H    14.30058   12.11310  -15.05363
       O    13.63565   12.72779  -14.86224
      H1    13.76901   12.85752  -13.91825
       H    15.04887    4.80949  -16.51649
       O    14.85482    5.75343  -16.53852
      H1    15.00625    5.90864  -17.43745
       H    17.73423    3.12784  -11.56239
       O    17.00319    3.46920  -11.02803
      H1    16.31084    3.87509  -11.56759
       H    19.38939    7.46892  -12.81817
       O    18.90761    6.80118  -12.27283
      H1    19.36005    6.02219  -12.57670
       H    13.93470    8.45656  -11.97027
       O    14.25352    8.83197  -12.81562
      H1    15.17546    9.10464  -12.76091
       H    17.52570    4.82332  -14.68721
       O    18.10375    4.06015  -14.87530
      H1    17.74840    3.41290  -15.55864
       H    14.14285    3.56535  -14.19566
       O    14.88940    3.16259  -14.64509
      H1    14.73473    3.03457  -15.57224
       H    16.91754    8.65761   -9.81393
       O    17.51692    7.90373   -9.76069
      H1    17.56640    7.52502  -10.65861
       H    15.98047    6.92419  -15.24619
       O    16.70139    6.87041  -14.60317
      H1    16.69601    7.70037  -14.06184
       H    11.85745    9.12479  -18.60825
       O    12.67207    8.54788  -18.54153
      H1    12.37094    7.65673  -18.32874
       H    15.39117    6.08920  -12.78190
       O    15.38862    5.37750  -12.12104
      H1    14.52030    4.95301  -12.28287
       H    17.05701   10.48863  -13.07066
       O    16.91900    9.58630  -13.42290
      H1    16.62387    9.80025  -14.30177
       H    18.01483    2.31542  -17.59248
       O    17.41881    2.31412  -16.81258
      H1    16.54867    2.48443  -17.21458
       H    18.21106    3.01209  -13.66817
       O    18.56467    2.37451  -13.05410
      H1    19.38679    2.13769  -13.44038
       H    16.49649   13.76435  -19.27168
       O    16.86114   13.44508  -18.42937
      H1    17.76530   13.57837  -18.34276

