87
frame 4 | Written by MDAnalysis XYZWriter (release 2.4.3)
       H    12.59431   -6.14337   11.05321
       O    11.64314   -6.24644   10.89426
      H1    11.39930   -5.32500   10.96114
       H    10.14734   -4.02027   16.46319
       O    10.71020   -4.40909   17.18014
      H1    10.36801   -5.28313   17.26685
       H     7.98045   -1.34651   11.40185
       O     7.37855   -0.99764   10.71032
      H1     6.79052   -1.73960   10.61544
       H    11.06470    3.09159   14.77950
       O    11.54857    2.37531   15.17881
      H1    12.32713    2.23892   14.68349
       H    13.56750    1.98895   13.51573
       O    13.41739    1.05779   13.32061
      H1    12.70201    1.03071   12.67301
       H    11.72321   -7.72806   14.83560
       O    10.84797   -7.58507   15.21220
      H1    10.21946   -7.46994   14.43746
       H    12.59688   -4.24865   13.84453
       O    11.88635   -3.66237   13.48576
      H1    12.44284   -3.21659   12.84398
       H     5.24893   -3.50163   16.20441
       O     5.97958   -3.66447   15.53227
      H1     5.50173   -3.71852   14.70835
       H    12.53618   -1.69615   14.44735
       O    12.95447   -1.42772   15.30537
      H1    13.25332   -0.52619   15.06250
       H     4.15048   -1.62259   17.49335
       O     4.29050   -0.79964   17.01338
      H1     5.16637   -0.85971   16.63084
       H     8.31129   -6.17532   12.24131
       O     7.60582   -5.56347   11.83860
      H1     7.88209   -5.45276   10.90056
       H     8.66478   -7.13128   17.49694
       O     9.64255   -6.95524   17.63513
      H1    10.02885   -7.20068   16.76653
       H    10.17572    0.94887   14.37334
       O     9.75747    0.10928   14.40095
      H1     8.81139    0.34534   14.13393
       H     6.31181    2.09182   13.98078
       O     7.19556    1.99558   13.55144
      H1     6.88453    2.05970   12.63900
       H     8.02371   -3.53516   18.14507
       O     8.44046   -4.28292   18.60458
      H1     9.38918   -4.25391   18.46143
       H    11.89297   -3.04446   17.50144
       O    12.10429   -2.11181   17.72006
      H1    12.49460   -1.71185   16.83406
       H     8.09576   -3.59318   12.27221
       O     8.60575   -2.81628   12.53211
      H1     8.69518   -2.88415   13.49899
       H    11.99964   -0.26112   11.36104
       O    11.72560    0.64333   11.35510
      H1    10.94246    0.63048   11.88447
       H     9.07715    4.13216   14.33825
       O     8.48568    3.82566   14.98203
      H1     8.04875    3.14200   14.45491
       H    10.13426    2.19403   18.98894
       O    10.90441    1.78705   18.56102
      H1    11.31184    1.27732   19.29022
       H     8.18171   -1.52900   17.34825
       O     7.42223   -2.16837   17.53075
      H1     7.28633   -2.66908   16.69666
       H    14.45203    1.07847   16.41287
       O    14.14194    2.02205   16.47386
      H1    13.17803    2.02354   16.56051
       H     5.69956   -6.67073   15.07427
       O     5.86353   -6.32371   15.96068
      H1     6.06531   -5.33964   15.79129
       H    14.35433   -1.85477   20.02764
       O    14.16629   -1.26912   19.29178
      H1    13.57428   -1.81870   18.71302
       H    14.66526   -4.58261   15.30787
       O    14.46699   -4.27770   14.42533
      H1    15.02601   -3.51416   14.23298
       H    12.49443   -2.26368   10.50564
       O    12.82957   -1.85310   11.30701
      H1    13.83691   -1.87094   11.25380
       H     9.78586   -0.00820   16.08633
       O     9.75887   -0.30304   17.01368
      H1    10.39761    0.34278   17.34412
       H     9.81395   -4.03259    9.88768
       O    10.70105   -3.74087   10.19343
      H1    10.41947   -3.38593   11.00016
       H     9.99499   -3.52473   14.66041
       O     9.38225   -3.07409   15.25598
      H1     9.76637   -2.19126   15.43131

