87
frame 5 | Written by MDAnalysis XYZWriter (release 2.4.3)
       H   -13.65013   18.37368   -0.88385
       O   -14.22239   18.75017   -0.19812
      H1   -13.91234   19.66871   -0.08865
       H   -11.84764   17.09131   -2.12379
       O   -12.24061   17.10603   -1.20994
      H1   -11.49683   16.80385   -0.66358
       H   -16.82009   12.34902   -4.49472
       O   -17.66244   11.85953   -4.28169
      H1   -17.54623   10.88651   -4.19003
       H   -12.69387   14.10172  -10.60878
       O   -13.25759   13.53707  -10.09070
      H1   -13.76600   13.02507  -10.74392
       H   -12.46100   19.89491   -4.82662
       O   -11.63799   19.37957   -4.66184
      H1   -11.88938   18.49427   -4.95997
       H   -13.91384   16.04524   -1.14577
       O   -14.56516   15.30040   -1.16608
      H1   -14.97261   15.25511   -2.06023
       H   -12.87250   14.37608   -4.22292
       O   -13.10843   14.83387   -5.03736
      H1   -12.52590   14.48297   -5.71756
       H   -11.88129   10.20452   -5.61251
       O   -12.36237    9.64619   -6.19685
      H1   -12.97810   10.27503   -6.62637
       H   -10.37464   16.03115   -3.46988
       O   -10.85891   16.85724   -3.39109
      H1   -10.12323   17.53612   -3.22461
       H   -15.48702   16.59661   -4.24752
       O   -15.58947   15.68192   -3.99845
      H1   -14.96092   15.27260   -4.64907
       H   -15.25423   12.40659   -1.59364
       O   -14.35943   12.14689   -1.86061
      H1   -13.80567   12.44899   -1.09420
       H   -10.16856   16.64599   -6.70830
       O   -10.85495   16.50137   -7.39759
      H1   -11.58516   17.08389   -7.06326
       H   -14.22341   10.34182   -2.39200
       O   -14.26001    9.45652   -2.71357
      H1   -15.21288    9.38230   -3.05051
       H    -8.55240   18.26514   -6.19669
       O    -8.75927   17.36337   -6.03421
      H1    -7.94561   16.93165   -6.33507
       H    -9.21077   12.54795   -0.20702
       O    -9.31507   13.50655   -0.42238
      H1    -9.13972   13.60214   -1.38546
       H   -11.85004   12.18482   -3.35228
       O   -12.13836   13.05381   -3.15377
      H1   -12.97821   12.83264   -2.78089
       H   -17.36090   13.51306   -1.61161
       O   -17.01408   12.60717   -1.77905
      H1   -17.42990   12.31480   -2.66324
       H   -13.88773   17.01273   -7.30853
       O   -13.49084   17.25947   -6.44198
      H1   -13.25758   16.43909   -5.96960
       H    -9.56950   13.15163   -8.54736
       O    -9.45356   12.98017   -7.57622
      H1   -10.27932   13.34146   -7.25228
       H   -18.40437   16.14899   -5.35576
       O   -17.87301   16.09139   -6.20847
      H1   -16.90660   16.03115   -5.97623
       H   -12.57930   13.96754   -7.97391
       O   -11.95156   14.12944   -7.28567
      H1   -11.56848   15.01286   -7.41793
       H   -16.14783   18.77567   -5.13102
       O   -15.35652   18.54756   -4.62357
      H1   -14.79304   18.18665   -5.37169
       H   -15.68182   17.36151   -8.97328
       O   -14.88472   16.81967   -9.01857
      H1   -14.70123   16.75438   -9.97676
       H   -11.80049   13.56727   -0.22232
       O   -12.72153   13.45550    0.01012
      H1   -13.29477   14.08185   -0.44268
       H   -14.79703   11.43412   -6.39409
       O   -15.08438   12.05659   -5.66966
      H1   -14.28162   12.41141   -5.27079
       H    -9.79625   10.06335   -3.96459
       O   -10.69356   10.29213   -3.79777
      H1   -10.81787    9.90286   -2.88788
       H   -10.34662   13.54440   -3.24078
       O    -9.45681   13.75266   -3.00037
      H1    -8.81138   13.21302   -3.54744
       H   -15.03505    9.30343   -7.50830
       O   -14.78554   10.25914   -7.55258
      H1   -15.50030   10.66138   -8.02855
       H   -15.12076   14.95263   -7.86575
       O   -15.81925   14.55272   -7.43082
      H1   -15.43120   13.86365   -6.86050

