87
frame 5 | Written by MDAnalysis XYZWriter (release 2.4.3)
       H    -3.23528    8.64700    0.43779
       O    -4.17639    8.83736    0.62329
      H1    -4.54563    8.90677   -0.28975
       H    -4.73673    7.47416   -5.23309
       O    -4.95327    8.39590   -5.11048
      H1    -5.66096    8.59075   -5.76348
       H    -4.16172    9.57017   -3.57811
       O    -4.10368   10.31268   -3.01440
      H1    -4.88841   10.20740   -2.46700
       H    -8.12592   10.47388   -0.04136
       O    -8.90818   10.86232    0.27378
      H1    -9.58953   10.17083    0.26294
       H    -6.47962    4.75683    1.29692
       O    -6.85298    4.36926    0.51014
      H1    -7.42711    3.64785    0.83529
       H    -4.43871    5.90380   -3.40418
       O    -4.28630    6.07730   -2.47204
      H1    -4.45734    5.24400   -2.01672
       H    -4.42035    7.10112    0.86107
       O    -4.36297    6.13710    1.01769
      H1    -3.57244    5.94932    1.51045
       H     0.42775    7.22972    0.71169
       O     1.22546    6.74159    0.99024
      H1     1.65270    7.39271    1.56705
       H    -2.64440    5.50171   -2.04458
       O    -1.85483    4.98367   -2.30309
      H1    -1.60999    4.43983   -1.51944
       H    -6.96201    8.22644    1.59907
       O    -7.48898    8.28611    0.84908
      H1    -6.93635    8.37024    0.12419
       H    -4.07641   10.23845    1.81902
       O    -3.81085   10.96101    2.38625
      H1    -4.63228   11.41535    2.63278
       H    -2.04846   10.84104   -0.84526
       O    -1.72273   10.22262   -1.55755
      H1    -2.48531   10.01555   -1.99993
       H    -6.85644    8.61032    4.03725
       O    -6.07299    8.47243    3.54402
      H1    -5.34004    8.53365    4.14614
       H    -4.39191   12.09680   -3.58540
       O    -4.65683   12.93701   -3.94529
      H1    -5.67471   12.88988   -3.99246
       H    -1.61700    4.78968    2.81214
       O    -2.36304    5.37739    3.08421
      H1    -2.97663    4.80408    3.51527
       H    -5.74372   12.83369    3.79942
       O    -5.94667   12.76742    2.85505
      H1    -6.87180   12.51939    2.81199
       H    -5.65652   12.09060   -1.17428
       O    -5.94040   11.16027   -0.88110
      H1    -5.48637   11.04720   -0.06639
       H    -1.59343    8.98378    3.57371
       O    -1.55370    9.45754    2.69490
      H1    -2.33868   10.02218    2.71534
       H    -3.16482   11.95457    0.91492
       O    -2.89611   12.25570    0.04263
      H1    -2.46750   13.07229    0.26571
       H    -1.06173    8.51685    1.21861
       O    -1.12239    8.01458    0.39483
      H1    -1.08443    8.66399   -0.30547
       H    -4.84481   13.69783   -2.36301
       O    -5.09405   13.96496   -1.45736
      H1    -4.43833   14.12983   -0.75452
       H    -5.42326    4.03065   -0.52166
       O    -4.46469    3.90421   -0.71190
      H1    -4.05408    4.54466   -0.10890
       H     0.59940   12.17819   -2.48488
       O    -0.18399   12.15899   -3.02901
      H1    -0.76419   11.60539   -2.49289
       H    -6.96735    7.69016   -2.29812
       O    -6.29957    8.08281   -1.71977
      H1    -5.52958    7.51061   -1.77289
       H    -5.50850    6.05364    2.42271
       O    -6.09265    5.55919    3.05538
      H1    -6.31723    6.23752    3.76588
       H    -9.98135    5.76455   -0.30224
       O    -9.61572    6.61331   -0.53957
      H1    -8.98680    6.91184    0.14190
       H    -8.39467    6.03879   -3.03286
       O    -8.52648    7.05619   -3.14969
      H1    -8.94601    7.21734   -2.28351
       H     0.95851    9.23838   -3.09303
       O     0.18497    8.65329   -3.32400
      H1    -0.45892    9.16418   -2.79512
       H    -7.37417    9.39851   -3.81717
       O    -8.08398    9.73437   -4.43021
      H1    -7.77588    9.37847   -5.24701

