87
frame 0 | Written by MDAnalysis XYZWriter (release 2.4.3)
       H    -7.39464   -8.69981  -16.54436
       O    -7.44619   -9.49237  -17.10123
      H1    -7.50155   -9.28217  -18.03562
       H    -4.60491  -11.55554  -15.55230
       O    -4.14332  -12.30393  -15.23847
      H1    -3.72839  -12.66640  -16.05155
       H    -0.05430  -10.13620  -11.38171
       O     0.50589   -9.86368  -12.13776
      H1     1.24152  -10.43021  -11.97291
       H    -1.39146  -11.12561  -17.95573
       O    -0.77676  -11.82956  -17.69414
      H1    -0.92996  -12.42997  -18.48413
       H    -4.52783   -9.46897  -16.08652
       O    -4.89256  -10.01365  -16.79549
      H1    -5.83622   -9.74599  -16.92451
       H    -5.07211  -13.80101  -15.78834
       O    -5.76109  -14.44318  -15.94154
      H1    -6.01722  -14.32579  -16.85321
       H     0.50042  -11.02421  -18.38263
       O     1.21653  -10.58418  -18.86710
      H1     1.87781  -10.37822  -18.17619
       H     1.46227  -14.78492  -15.85020
       O     1.46329  -15.33338  -16.66430
      H1     2.07906  -14.86561  -17.22819
       H    -3.27266   -5.90085  -17.31334
       O    -4.02874   -5.36850  -17.18957
      H1    -3.75525   -4.57462  -16.68356
       H    -2.12335  -13.08028  -17.42650
       O    -3.04910  -13.34994  -17.38309
      H1    -3.21523  -14.22376  -17.79474
       H     1.27690  -14.30257  -14.10801
       O     1.83162  -13.61539  -14.50422
      H1     1.29130  -12.83156  -14.63471
       H    -2.92042  -10.47345  -19.31237
       O    -2.59731   -9.94882  -18.52137
      H1    -3.41615  -10.03836  -17.99609
       H    -1.20559  -14.24255  -11.19673
       O    -1.31421  -14.74271  -12.03266
      H1    -1.66826  -14.06156  -12.56900
       H    -0.62043   -9.62029  -15.14716
       O    -0.92671   -9.05548  -14.42883
      H1    -0.29792   -9.41342  -13.77823
       H    -4.17170   -8.41535  -14.11026
       O    -3.95214   -9.37003  -14.06382
      H1    -2.97869   -9.31571  -13.87163
       H    -6.42681  -12.78148  -18.55057
       O    -6.93788  -12.52036  -17.78322
      H1    -6.43447  -11.86755  -17.30276
       H     3.43274  -13.60103  -18.87475
       O     3.71222  -14.37702  -18.32461
      H1     4.27847  -13.90421  -17.66329
       H    -3.49683  -15.89160  -19.61747
       O    -3.97275  -15.82483  -18.75609
      H1    -3.70938  -16.53752  -18.16989
       H    -4.64969   -6.43767  -15.34713
       O    -4.74069   -6.91537  -14.48767
      H1    -5.68367   -6.89654  -14.34628
       H     2.55640   -8.78901  -16.82357
       O     3.17018   -9.52081  -17.06983
      H1     3.57379   -9.69623  -16.27632
       H     2.38136   -6.93145  -15.82111
       O     1.66295   -7.50163  -16.04595
      H1     1.15902   -6.97869  -16.68007
       H     0.48611  -18.00996  -18.17933
       O     0.37778  -17.76489  -17.24962
      H1     0.58777  -16.78923  -17.30046
       H     0.77451   -7.13948  -19.18642
       O     0.44067   -6.31099  -18.82119
      H1     1.01597   -5.66249  -19.24372
       H    -0.36533   -3.66249  -17.13467
       O    -0.87849   -4.44770  -17.40191
      H1    -0.23342   -5.08143  -17.76511
       H    -2.87827  -12.18479  -13.98599
       O    -2.13615  -12.25607  -13.32105
      H1    -2.51407  -11.62239  -12.64111
       H    -2.28825   -8.11989  -17.86195
       O    -1.91282   -7.28884  -17.62133
      H1    -1.34197   -7.03438  -18.34961
       H    -1.39624   -6.53459  -15.17942
       O    -1.13759   -5.64999  -14.83599
      H1    -1.06684   -5.12192  -15.62135
       H    -0.66544  -11.67340  -14.52701
       O     0.05173  -11.60420  -15.17719
      H1    -0.17588  -12.08506  -16.00199
       H     3.17647  -12.79635  -13.86593
       O     3.92291  -12.23096  -13.53976
      H1     4.59143  -12.79409  -13.12007

