87
frame 4 | Written by MDAnalysis XYZWriter (release 2.4.3)
       H    -2.36197   -8.51158    0.41163
       O    -2.65692   -9.21369    0.99510
      H1    -2.90840   -8.74030    1.80919
       H     3.89708   -8.04844    3.62540
       O     4.59950   -7.99807    2.94622
      H1     4.20516   -7.64593    2.09242
       H     0.84445   -7.34310    1.87570
       O     1.11366   -7.68130    0.96733
      H1     1.98524   -7.23681    0.81566
       H     1.74126  -12.07222   -6.45469
       O     1.53465  -12.63452   -7.19445
      H1     0.73929  -13.02863   -6.85917
       H    -0.58983   -8.09120   -2.59520
       O     0.04385   -8.63507   -3.01096
      H1    -0.34639   -8.98438   -3.81800
       H     0.41201   -6.82144   -3.69175
       O     0.84926   -5.95455   -3.95038
      H1     1.81980   -6.15956   -3.88721
       H     3.08541  -10.69931   -4.37488
       O     2.17118  -10.36514   -4.54796
      H1     1.58286  -10.72467   -3.86791
       H    -1.82345   -4.87081    0.48664
       O    -2.14173   -4.94761   -0.42014
      H1    -1.42642   -4.79410   -1.00990
       H     1.88994  -11.05279    1.37477
       O     2.19361  -10.45088    2.05000
      H1     1.62708   -9.74190    1.81485
       H     0.14437  -12.79790   -4.05405
       O     0.64522  -12.33756   -3.38513
      H1     0.52773  -12.80319   -2.51097
       H     0.20410   -3.40537   -2.31442
       O    -0.36152   -4.20808   -2.42698
      H1     0.12418   -4.76178   -3.06037
       H     2.39678  -15.19640   -0.19763
       O     2.31791  -14.35183    0.21319
      H1     3.00299  -13.77314   -0.14853
       H    -3.68868  -11.62058   -3.38558
       O    -3.75859  -12.10226   -4.20246
      H1    -4.51780  -11.67499   -4.61793
       H     5.16602  -10.18386   -3.70244
       O     4.85923  -10.92144   -4.26513
      H1     4.83983  -11.75097   -3.79065
       H     4.44262   -7.08313   -4.35246
       O     3.71090   -6.63802   -4.83519
      H1     3.39723   -7.25968   -5.46565
       H    -1.72508   -6.66979   -0.44698
       O    -1.28512   -7.54185   -0.64218
      H1    -0.53836   -7.60656   -0.03469
       H     2.68270   -8.89835   -7.20157
       O     2.17991   -8.22342   -6.69185
      H1     1.79573   -8.81305   -5.99275
       H     0.91100   -9.56317   -1.74119
       O     1.24505  -10.18660   -1.01591
      H1     1.63976   -9.51406   -0.43848
       H    -0.58672  -13.13446   -0.70565
       O    -0.06484  -13.82447   -1.06617
      H1     0.73997  -14.09466   -0.48879
       H     2.47710  -15.27882   -2.97861
       O     2.34258  -14.65954   -3.71908
      H1     1.65688  -14.11531   -3.46091
       H    -3.64767   -7.51337   -3.29281
       O    -3.04535   -7.39649   -4.04425
      H1    -3.58724   -6.89534   -4.71948
       H     4.59914   -6.71244    0.04350
       O     3.87076   -6.53247    0.69767
      H1     3.75867   -5.58396    0.67075
       H     0.35240  -11.39930    2.24054
       O     0.18004  -12.10503    1.53540
      H1    -0.52948  -11.64810    1.06993
       H     2.86534  -11.64100   -1.18935
       O     3.57351  -12.28932   -0.98523
      H1     3.64652  -12.64722   -1.88547
       H     6.63321   -8.19944   -3.90451
       O     5.74689   -8.11262   -3.60669
      H1     5.79575   -7.84462   -2.67412
       H    -2.11731  -10.03246   -4.42593
       O    -1.69344   -9.55303   -5.15737
      H1    -2.20328   -8.74155   -4.94172
       H    -3.88903   -9.71926   -1.98280
       O    -3.48394  -10.63349   -2.04353
      H1    -2.64790  -10.65267   -1.58992
       H    -1.84396  -10.57438    0.05342
       O    -1.37649  -11.32028   -0.45944
      H1    -0.63865  -10.86273   -0.82756
       H     5.34659  -10.08116    0.23618
       O     5.29961  -10.26492   -0.69589
      H1     4.69274  -11.05740   -0.73773

