87
frame 5 | Written by MDAnalysis XYZWriter (release 2.4.3)
       H     8.20175    8.24376  -11.96654
       O     9.18162    8.39167  -11.68247
      H1     9.30889    8.72602  -10.78920
       H    12.03972    9.24038  -14.25990
       O    12.02364    9.98990  -14.84526
      H1    12.82136   10.54079  -14.65639
       H     3.85954    5.71346  -19.01366
       O     3.11852    5.45084  -18.48017
      H1     2.56851    6.20232  -18.57261
       H     7.69096    8.39439  -16.58166
       O     8.68320    8.31529  -16.46229
      H1     9.01459    8.34591  -17.37688
       H    11.13661    6.13279  -14.68827
       O    11.99662    5.64497  -14.70259
      H1    11.70796    4.64716  -14.80832
       H     3.52203    8.75484  -16.71456
       O     3.76830    8.50705  -17.65552
      H1     4.12717    9.28308  -18.09673
       H     7.53752   12.77104  -15.54714
       O     7.22878   13.42941  -14.94755
      H1     7.00859   14.18755  -15.51336
       H     8.91095    4.38833  -14.06727
       O     9.22626    4.80892  -13.27062
      H1     9.64172    5.63860  -13.65324
       H     7.91460    3.94624  -15.91817
       O     8.64503    3.29933  -15.86237
      H1     8.21594    2.44409  -15.74654
       H     2.22413    8.02234  -18.01578
       O     1.41973    7.88512  -18.50238
      H1     0.77989    7.40508  -17.91527
       H     4.78675    5.55268  -12.79169
       O     5.04490    4.82225  -12.25983
      H1     4.35096    4.48189  -11.71696
       H     5.73016   13.70863  -18.35837
       O     6.39996   13.00776  -18.48482
      H1     7.26020   13.14913  -18.10373
       H     9.46299   13.90079  -18.06109
       O     9.00169   13.40941  -17.36814
      H1     8.82169   14.12335  -16.69233
       H    10.06647    5.18249  -18.36528
       O     9.36951    4.71910  -17.92044
      H1     9.72968    4.38604  -17.09460
       H     6.89066    2.06910  -18.87155
       O     7.49394    2.75432  -19.18996
      H1     7.63646    3.26111  -18.37192
       H     9.50482    9.89303  -19.64237
       O     9.90469    9.24637  -19.01019
      H1    10.31115    9.86205  -18.43792
       H     7.61850    5.72509  -17.10955
       O     6.97074    5.34926  -16.49487
      H1     6.61481    6.09921  -16.02634
       H    10.65177   10.39393  -14.01577
       O     9.84698   10.72105  -13.50500
      H1     9.62495   10.05988  -12.85306
       H     9.26452    8.08054  -14.79363
       O     9.78840    7.51486  -14.20424
      H1     9.87436    7.94509  -13.31297
       H     7.41708   11.07116  -11.58318
       O     6.59053   10.66515  -11.90866
      H1     6.00716   11.44371  -12.08409
       H     5.72279   11.46166  -18.48859
       O     5.04371   10.73074  -18.62666
      H1     5.44123   10.07316  -19.19193
       H     4.94286    4.76820  -16.06374
       O     4.00323    4.78907  -15.90691
      H1     3.74627    5.05099  -16.78632
       H     5.70125   10.60851  -14.75750
       O     5.39614    9.80950  -14.28584
      H1     6.00365    9.69226  -13.63190
       H     5.23474    8.09130  -16.74506
       O     5.94858    7.90535  -16.11313
      H1     5.78113    8.46047  -15.38758
       H     7.44122    6.73706  -13.32023
       O     6.99372    7.61893  -13.10779
      H1     6.30696    7.49075  -12.42015
       H    10.41847   11.58845  -17.14277
       O    11.21079   11.04220  -17.30408
      H1    11.48004   10.51423  -16.50224
       H     2.00769   12.25157  -18.40390
       O     2.68596   12.14987  -17.72489
      H1     3.45424   11.82047  -18.18744
       H     8.82473   11.01395  -14.97029
       O     8.21935   10.82608  -15.66528
      H1     8.44124    9.93779  -15.94717
       H     4.57183    6.96405  -14.95249
       O     4.19657    7.10920  -14.05489
      H1     4.62398    7.92242  -13.73090

