87
frame 4 | Written by MDAnalysis XYZWriter (release 2.4.3)
       H    17.66590  -15.91897   -8.94075
       O    18.57943  -15.70145   -8.68160
      H1    18.88372  -16.49787   -8.26483
       H    20.21691  -18.10822   -2.78943
       O    19.63501  -17.73837   -3.43601
      H1    18.87432  -17.87327   -2.89736
       H    18.63485  -16.85033  -11.48073
       O    17.89476  -16.57865  -12.09315
      H1    18.26846  -15.78551  -12.40965
       H    12.11477  -14.30521   -1.76793
       O    12.21891  -14.85861   -2.57193
      H1    12.67430  -15.62944   -2.27162
       H    14.01021  -17.03604   -5.49325
       O    13.41944  -17.69351   -5.08070
      H1    12.51997  -17.32977   -5.04100
       H    15.49036  -15.30167   -6.39283
       O    15.58826  -16.22683   -6.11906
      H1    16.00092  -16.77208   -6.77504
       H    13.65751  -17.85975   -2.47398
       O    13.82590  -17.15110   -1.82873
      H1    13.73932  -17.52070   -0.92007
       H    18.26543  -18.72396   -6.24031
       O    18.67958  -19.35060   -5.56706
      H1    19.15287  -18.74153   -4.96380
       H    12.28693  -17.54319   -7.80662
       O    12.62971  -17.68760   -8.67533
      H1    12.24335  -16.90018   -9.15195
       H     8.03262  -18.36142   -4.93461
       O     8.25236  -17.75991   -5.68219
      H1     7.62399  -17.02892   -5.49181
       H     9.92282  -17.21398   -5.12939
       O    10.63876  -16.73500   -4.64769
      H1    10.49581  -15.84889   -4.64707
       H    13.51156  -19.05751   -9.70635
       O    13.94348  -19.32898  -10.54237
      H1    13.16771  -19.36516  -11.14623
       H    10.85058  -13.70310   -6.89965
       O    11.06960  -14.61708   -7.16801
      H1    10.22058  -15.00605   -6.83270
       H    16.49312  -14.46408   -2.42583
       O    16.71000  -13.80910   -1.74954
      H1    16.28321  -12.98829   -2.06388
       H    14.09458  -13.67323   -6.23664
       O    14.85865  -13.61249   -6.82775
      H1    15.28251  -12.77231   -6.60131
       H    10.70092  -15.46851  -10.36821
       O     9.82614  -15.15599  -10.12949
      H1     9.23368  -15.91687  -10.19638
       H    14.21827  -13.93543   -8.42789
       O    13.99613  -14.18161   -9.35294
      H1    13.70336  -13.34164   -9.82755
       H    10.57952  -18.56351   -2.13843
       O    10.56999  -17.69906   -1.64081
      H1    10.53504  -17.07318   -2.38026
       H    13.01842  -13.95300   -3.78214
       O    13.48002  -13.27356   -4.31159
      H1    14.42537  -13.18746   -4.06275
       H    12.62231  -18.97623    0.54473
       O    13.38847  -18.37337    0.53485
      H1    14.17770  -18.95693    0.77279
       H    15.92189  -15.09194   -9.67012
       O    16.23653  -15.94532   -9.91597
      H1    16.81898  -15.76773  -10.68277
       H    14.33074  -19.08694   -5.57833
       O    14.76459  -19.74801   -6.10661
      H1    14.08750  -19.83972   -6.78330
       H    15.39493  -16.62845  -11.67297
       O    14.73531  -17.21900  -12.10849
      H1    14.45331  -17.85431  -11.41278
       H    15.59978  -16.18242   -4.19957
       O    15.92151  -16.05982   -3.27479
      H1    15.21945  -16.43918   -2.74180
       H    16.81971  -17.49380   -1.63608
       O    17.56640  -18.14507   -1.69393
      H1    17.21414  -18.93094   -2.13176
       H     8.04860  -15.02949   -6.57918
       O     8.63927  -14.81098   -5.85903
      H1     8.90154  -13.87751   -6.05338
       H    16.60607  -18.77080   -8.39563
       O    16.64830  -18.31477   -7.57666
      H1    16.09099  -18.80457   -7.03895
       H    17.94941  -18.53768  -11.76085
       O    18.36236  -19.33355  -11.44210
      H1    17.74310  -19.68237  -10.75129
       H    12.90834  -15.27933  -10.18543
       O    12.43156  -15.70834  -10.94107
      H1    13.10354  -16.18100  -11.51461

