87
frame 5 | Written by MDAnalysis XYZWriter (release 2.4.3)
       H   -16.57993   -4.87828   -2.20340
       O   -17.12123   -4.43036   -1.55740
      H1   -17.82665   -3.99924   -2.08804
       H   -15.96088  -12.56074   -0.39047
       O   -16.52201  -12.53391   -1.18891
      H1   -17.34021  -13.09464   -1.10377
       H   -15.99829   -8.52016   -2.80774
       O   -15.50437   -7.91319   -2.17695
      H1   -14.98059   -7.34571   -2.81989
       H   -17.29156   -4.77960   -6.47059
       O   -17.48781   -5.01305   -5.58184
      H1   -18.33939   -4.64962   -5.38203
       H   -15.34724   -8.71786    0.77871
       O   -15.22022   -7.85079    0.51908
      H1   -15.07806   -7.92781   -0.42035
       H   -14.80114   -5.08524   -4.18070
       O   -15.54740   -4.45699   -3.98693
      H1   -16.28433   -4.70442   -4.63816
       H   -17.66476  -15.15787   -4.20408
       O   -18.60669  -15.01375   -4.17147
      H1   -19.09638  -15.85956   -4.01447
       H   -16.64072  -10.06388   -9.49159
       O   -16.56336  -10.45661  -10.36366
      H1   -16.19420   -9.91274  -11.01952
       H   -18.22851   -8.53171   -1.23819
       O   -18.45758   -7.58488   -1.01792
      H1   -17.71233   -7.10533   -1.37049
       H   -17.38851   -7.08218   -8.80270
       O   -17.48455   -7.67861   -8.01492
      H1   -18.32228   -7.40787   -7.60689
       H   -15.09308  -13.07354    1.35428
       O   -14.56252  -12.54449    0.75284
      H1   -14.12188  -11.92463    1.27141
       H   -14.55869   -8.10642   -6.17087
       O   -13.99045   -8.63573   -5.58369
      H1   -13.19460   -8.58254   -6.14997
       H   -12.97606   -6.96159   -8.61153
       O   -13.03570   -7.21804   -7.65257
      H1   -12.08747   -7.55103   -7.42168
       H   -12.03413  -10.46631   -5.85648
       O   -11.51307  -10.22922   -5.02474
      H1   -12.12813  -10.34345   -4.27102
       H   -19.78794  -13.50536   -1.64477
       O   -18.93443  -13.89516   -1.55726
      H1   -18.70296  -14.26582   -2.42381
       H   -10.90581   -8.91161   -5.87451
       O   -10.89678   -8.07327   -6.41946
      H1   -10.04895   -7.62885   -6.29283
       H   -16.85012   -9.69586   -5.21557
       O   -16.63300   -9.78357   -4.24830
      H1   -17.49875   -9.81373   -3.78708
       H   -17.32550  -10.64435   -1.43776
       O   -17.88159  -10.03541   -1.92390
      H1   -18.80182  -10.34861   -1.81728
       H   -13.99866  -10.08313   -3.54749
       O   -13.36450  -10.57063   -2.99951
      H1   -13.91177  -11.39846   -2.84933
       H   -16.09134  -11.31826   -3.82909
       O   -15.58226  -12.17198   -3.67838
      H1   -15.84716  -12.41038   -2.74767
       H   -13.65177   -7.48538   -4.29306
       O   -13.68871   -6.68604   -3.73324
      H1   -12.82505   -6.33275   -3.67791
       H   -14.20848  -13.04561   -4.86271
       O   -13.34697  -13.26969   -5.18554
      H1   -13.09129  -12.52701   -5.72447
       H   -19.72225   -7.12382   -5.12242
       O   -19.30192   -7.24534   -5.96602
      H1   -18.45709   -6.83328   -5.84149
       H   -11.80189  -10.80386   -8.04901
       O   -12.48789  -10.35813   -7.54440
      H1   -13.23947  -10.95903   -7.48245
       H   -14.68895  -12.16359   -8.35793
       O   -14.61661  -11.82521   -7.44222
      H1   -15.47690  -11.43994   -7.38178
       H   -15.05377  -15.34933   -3.59613
       O   -15.70522  -15.53291   -4.33508
      H1   -15.39724  -16.43097   -4.64969
       H   -10.75023   -8.05641   -1.67167
       O   -11.42324   -8.20638   -0.96061
      H1   -12.25063   -8.41460   -1.39688
       H   -17.69195  -11.00673   -7.93482
       O   -17.09561  -10.32636   -7.59024
      H1   -17.47371   -9.52840   -8.03945
       H   -13.20174  -14.13825   -3.62025
       O   -13.33957  -14.70197   -2.84448
      H1   -13.12878  -15.58194   -3.20827

