87
frame 5 | Written by MDAnalysis XYZWriter (release 2.4.3)
       H     2.66739    3.36671  -10.68993
       O     3.54163    3.02774  -10.92953
      H1     3.90118    2.46858  -10.24347
       H     3.83931   -4.79835  -11.12771
       O     3.48446   -4.91670  -11.99875
      H1     2.67868   -5.40344  -11.90271
       H     5.21110   -3.78535   -9.58770
       O     4.54590   -4.46802   -9.73431
      H1     3.83095   -4.20824   -9.11228
       H     9.61391    1.81846   -7.57977
       O     8.70514    1.49590   -7.82395
      H1     8.39842    2.17584   -8.41435
       H     1.64079    2.76033  -14.72936
       O     0.88694    3.32313  -14.71705
      H1     0.18544    2.92198  -14.15807
       H     4.96145    3.47036   -7.71925
       O     4.14060    3.06104   -8.13163
      H1     3.74348    2.69021   -7.33383
       H     5.00496   -0.18593  -10.01197
       O     5.35422    0.45524  -10.67493
      H1     4.87864    0.28380  -11.48303
       H     5.61997    3.70291  -13.74803
       O     5.84720    2.98962  -14.35518
      H1     6.69382    2.58452  -14.14516
       H     4.78675    5.55268  -12.79169
       O     5.04490    4.82225  -12.25983
      H1     4.35096    4.48189  -11.71696
       H     5.24569   -2.65611  -13.94871
       O     6.09916   -2.30915  -14.11489
      H1     6.00864   -1.51723  -14.60759
       H     6.99973    5.93188  -10.16021
       O     7.16642    5.25175  -10.85933
      H1     6.32296    5.13454  -11.35516
       H     7.52565   -4.06037   -8.85915
       O     7.46621   -4.24231   -9.80907
      H1     7.49773   -3.35802  -10.19317
       H     2.18852   -1.73121  -11.76597
       O     2.69594   -2.32070  -12.32193
      H1     2.49562   -3.24083  -12.15485
       H     8.27870    2.12839  -11.31884
       O     8.76295    2.10482  -12.21033
      H1     8.92743    3.03203  -12.29915
       H     0.33567   -0.98016  -10.38728
       O     1.23917   -0.74021  -10.61095
      H1     1.57832   -0.15740   -9.93794
       H     7.21224    0.22688  -15.20795
       O     6.48710   -0.08335  -15.81346
      H1     7.06427   -0.34838  -16.56326
       H     4.49225    1.87928  -13.73910
       O     3.87838    1.46627  -13.16239
      H1     3.77404    2.04786  -12.38938
       H     6.48110    2.20010  -10.28708
       O     7.13769    2.79341   -9.89068
      H1     7.04831    3.68836  -10.30220
       H     2.41348    1.04469   -6.27026
       O     2.11700    1.10997   -7.18566
      H1     1.52311    1.85354   -7.13583
       H     1.92954    0.61485  -13.54569
       O     1.08669    0.54719  -13.97299
      H1     0.66263   -0.17915  -13.51869
       H     9.09883   -0.09560  -14.72032
       O     8.89679    0.80143  -14.74052
      H1     9.08328    1.13273  -13.85731
       H    10.07991   -1.26386   -9.80861
       O    10.49636   -1.38724  -10.67609
      H1     9.74803   -1.55452  -11.25508
       H     8.76040   -0.42191   -8.16202
       O     8.99536   -1.32431   -8.41622
      H1     9.05412   -1.77221   -7.55786
       H     1.19294   -2.37433  -12.91418
       O     0.20228   -2.23519  -12.95826
      H1    -0.00644   -2.99182  -13.59993
       H     4.30482    1.43231  -16.22420
       O     3.47707    1.97275  -16.26258
      H1     3.75820    2.79950  -15.90246
       H     7.43722   -0.93389  -11.11591
       O     7.48124   -1.86202  -11.44732
      H1     6.96095   -1.90775  -12.26017
       H     2.02297   -0.92010  -15.61303
       O     2.52096   -1.67277  -15.21167
      H1     2.40355   -1.68468  -14.25934
       H     4.08432   -0.94554   -7.40764
       O     3.83171   -0.71168   -8.31550
      H1     3.21674    0.10384   -8.19108
       H     2.67268   -2.18329   -8.99812
       O     2.34048   -3.07071   -8.88337
      H1     1.77486   -3.37679   -9.58647

