87
frame 6 | Written by MDAnalysis XYZWriter (release 2.4.3)
       H     5.98451    2.77707   11.01147
       O     5.12443    2.34757   10.85156
      H1     5.13921    1.56591   11.34875
       H     2.56574    3.59166    9.39571
       O     3.09014    4.06788   10.05586
      H1     3.86011    3.43447   10.23701
       H     2.78571    6.40498    6.40142
       O     3.07520    6.15073    5.53136
      H1     3.82523    5.51599    5.75384
       H     4.64421   -0.04365    5.26949
       O     3.93604    0.62036    5.03342
      H1     4.02526    1.44162    5.57120
       H    -0.94958    4.19329    9.48171
       O    -1.46649    3.82646    8.74378
      H1    -2.02233    3.14585    9.17467
       H     5.91709    5.29870    5.16904
       O     5.38364    4.87664    5.87484
      H1     5.91595    5.01585    6.69247
       H     4.34028    2.88153   14.79040
       O     4.44578    1.95777   14.62404
      H1     3.71508    1.62238   15.19336
       H     0.68811    5.91926    9.48538
       O     0.08573    5.56971   10.11692
      H1    -0.02036    6.27700   10.77969
       H     2.46036   -0.23619    9.97387
       O     2.61031   -1.19190    9.73643
      H1     3.51850   -1.29257    9.48335
       H     5.06406    5.41289   15.00749
       O     5.24793    4.81997   14.27560
      H1     4.47027    4.91241   13.65798
       H     3.22565   -0.78220   13.59037
       O     3.54431   -1.31447   14.31660
      H1     4.37948   -0.96480   14.60279
       H     6.87128    6.53070    8.02249
       O     6.37541    5.72132    8.26333
      H1     5.67220    6.14235    8.77625
       H     7.01690    2.14564   13.86720
       O     7.34655    3.03148   13.98781
      H1     6.56129    3.58350   14.00059
       H     8.62482    0.41800    8.57644
       O     8.51649    0.90210    9.39000
      H1     8.26984    0.17430    9.91452
       H     6.17141    0.43256    8.13379
       O     5.30666    0.52369    8.59379
      H1     5.51965    1.27947    9.19682
       H     3.10401    0.05376    6.64371
       O     2.37756   -0.40057    7.10163
      H1     2.70707   -0.58808    7.99584
       H     2.97004    4.90681   11.75288
       O     3.14870    5.43144   12.57221
      H1     2.28792    5.55829   13.04518
       H    -0.67736    3.78390    6.90517
       O     0.03053    3.44969    6.36691
      H1     0.18629    4.15963    5.76337
       H     6.29718   -0.63555   12.32617
       O     6.25462    0.25958   12.53343
      H1     5.69407    0.35372   13.29986
       H     4.26564    7.06472   12.11696
       O     4.33631    7.94483   11.80792
      H1     5.16680    8.30183   12.10113
       H     1.17336    3.05984    7.63177
       O     1.86677    2.62421    8.18835
      H1     2.68789    2.67641    7.70976
       H     0.11738    0.24681   10.66324
       O     0.81867    1.01018   10.61179
      H1     0.83672    1.39291    9.68246
       H     2.79786    7.40394    8.40694
       O     2.02495    7.28720    7.80269
      H1     2.04345    8.00422    7.12811
       H     3.53778    5.76873    9.54234
       O     4.03678    6.58760    9.47881
      H1     4.17888    7.08047   10.32139
       H     4.82420    2.05269    7.46351
       O     4.29054    2.61462    6.91942
      H1     4.91229    3.23051    6.44339
       H     3.45342    1.36350   12.94648
       O     2.88526    0.74241   12.49641
      H1     2.23789    1.24088   11.94343
       H    -0.20390    3.86133   11.03290
       O    -0.87966    3.27656   11.37655
      H1    -0.49740    2.42617   11.22886
       H     9.62259    4.26182    9.87841
       O     9.97429    3.44741    9.49136
      H1     9.18975    2.94231    9.31470
       H     7.32465    5.47634   10.33082
       O     7.69307    4.86404   10.99897
      H1     7.97107    5.49267   11.65599

