87
frame 0 | Written by MDAnalysis XYZWriter (release 2.4.3)
       H    16.98177   14.04467   -6.76188
       O    16.63546   14.72820   -6.17684
      H1    15.84654   14.43365   -5.77351
       H    18.11645   17.24804   -7.80619
       O    17.19490   16.94499   -7.77808
      H1    17.17563   16.18638   -7.22889
       H    14.16148   15.05807    1.64928
       O    14.05304   14.36483    0.92262
      H1    14.83985   13.86036    1.14155
       H    13.29402   19.06971   -6.71097
       O    13.77119   18.66585   -5.98863
      H1    13.05800   18.17798   -5.53270
       H    14.53896   10.88431   -3.29217
       O    14.94515   11.29538   -4.04637
      H1    14.62125   12.22303   -4.03003
       H    18.08457   15.27591   -5.25116
       O    18.87629   15.40541   -4.73831
      H1    19.41528   14.62922   -4.82205
       H    13.05577   19.17860    1.99662
       O    12.91830   19.99650    2.56311
      H1    12.15766   19.88639    3.13530
       H    15.20490   12.18414   -0.57464
       O    15.45483   11.64423    0.15226
      H1    14.89020   10.87282    0.02175
       H    14.94584   19.19237   -3.09321
       O    14.13297   19.65646   -3.32682
      H1    13.82409   19.37838   -4.20151
       H    18.31143   18.22610    2.40082
       O    18.71089   18.91545    1.81506
      H1    18.26727   19.78650    2.09139
       H    14.24922   16.61485    3.65562
       O    14.26472   15.71502    3.35116
      H1    13.88369   15.28501    4.07388
       H    15.94225   19.03700   -0.41852
       O    15.91324   19.65501   -1.13501
      H1    16.80117   19.67911   -1.46778
       H    12.46797   18.50199   -0.86887
       O    12.30008   18.56744   -1.78923
      H1    13.10940   18.96895   -2.21668
       H    15.61377   19.41286   -9.10765
       O    16.55678   19.37730   -8.75746
      H1    16.59908   18.38114   -8.55347
       H    16.50164   16.87704   -0.21569
       O    16.07825   17.44728    0.47445
      H1    16.44716   17.08816    1.28572
       H    17.16813   12.68455   -1.41842
       O    16.64005   13.27545   -1.97607
      H1    17.11136   14.16843   -1.96762
       H    18.65838   13.28255   -8.11889
       O    18.93549   14.19068   -7.98473
      H1    19.21591   14.43803   -8.90220
       H    15.12770   18.97488    4.62512
       O    14.72865   18.35190    4.03581
      H1    14.13619   18.80042    3.53508
       H    14.10925   14.90148   -9.09685
       O    15.02116   15.09163   -8.87422
      H1    15.00287   15.91245   -8.44470
       H    14.08117   17.59647    0.95210
       O    13.16179   17.95137    0.97376
      H1    12.61135   17.12212    1.10097
       H    16.10107   16.68979   -4.95340
       O    15.73175   16.75073   -4.11358
      H1    15.15754   15.94261   -4.13011
       H    17.46587   17.47761    3.89387
       O    17.85172   16.84383    3.25444
      H1    18.40715   16.30286    3.85842
       H    12.07580   17.55857   -3.48175
       O    11.79075   17.41828   -4.38135
      H1    10.81413   17.54821   -4.42159
       H    13.91032   14.19280   -3.23283
       O    14.67686   14.01635   -3.71715
      H1    15.31476   13.66263   -3.09849
       H    18.83451   18.53695   -2.03124
       O    18.03646   18.72929   -2.59527
      H1    18.40462   19.11921   -3.35373
       H    16.45255   19.75947   -7.04702
       O    16.29638   19.84498   -6.05566
      H1    15.65804   19.19554   -5.96504
       H    16.83254   16.34375   -2.55843
       O    17.52625   15.86398   -2.02273
      H1    18.27272   15.85089   -2.64913
       H    19.95326   10.59907   -5.72718
       O    19.28887   11.28450   -5.91280
      H1    19.81133   12.07336   -5.81783
       H    12.47404   12.69205   -5.88597
       O    12.77313   13.57370   -6.07852
      H1    12.65021   14.03727   -5.21307

