87
frame 6 | Written by MDAnalysis XYZWriter (release 2.4.3)
       H     8.22972   -0.32514   -0.29798
       O     8.33978   -1.23838   -0.46723
      H1     9.02579   -1.67213    0.08399
       H     5.23953   -2.28898   -3.16075
       O     5.28825   -2.86798   -4.00389
      H1     5.37084   -3.85805   -3.82475
       H    12.22622    0.18734   -7.66917
       O    12.19842   -0.73966   -7.66798
      H1    12.27184   -0.92018   -8.62150
       H     3.79944    5.76317   -5.32755
       O     3.36344    6.59778   -5.35716
      H1     3.15162    6.70134   -6.29641
       H    10.97225    3.93499   -1.94668
       O    11.47976    4.73662   -2.05610
      H1    12.41298    4.62082   -1.82405
       H     6.18096    2.90194    0.43378
       O     6.56062    3.55619   -0.19195
      H1     5.79880    3.98619   -0.51441
       H     9.46890    2.08597   -7.09091
       O     8.64036    1.61543   -7.17106
      H1     8.24768    1.86133   -8.09151
       H     4.58915    4.46554   -3.38968
       O     4.41543    4.18258   -4.28801
      H1     3.59010    3.67595   -4.22584
       H     5.81202    0.16820   -1.98485
       O     5.12048   -0.36981   -2.30401
      H1     4.41474   -0.32790   -1.62785
       H     5.35239    4.08572   -7.43985
       O     4.47729    3.88216   -7.75836
      H1     4.06247    3.12362   -7.33344
       H    10.70590    1.61129   -1.94423
       O    10.15628    2.38935   -1.90261
      H1     9.44843    2.13255   -2.46506
       H     6.78303   -1.86873   -4.86712
       O     7.66799   -2.11157   -5.29556
      H1     8.40833   -1.77921   -4.72713
       H     4.19484    2.01071   -4.13428
       O     4.39932    1.12224   -4.51455
      H1     4.61592    0.62274   -3.70560
       H    13.55179    1.28786   -5.11449
       O    12.76054    0.76302   -4.83391
      H1    12.61843    0.98839   -3.94438
       H     6.73292    3.85218   -6.01634
       O     6.88617    4.57646   -6.60764
      H1     7.81204    4.56601   -6.86504
       H     6.61114    1.22598  -10.00477
       O     7.31572    1.70778   -9.56746
      H1     6.91259    2.51977   -9.25626
       H     9.40387    5.64811   -6.22315
       O     9.28185    5.57786   -7.18502
      H1    10.19534    5.56834   -7.42552
       H     6.34615    6.27071   -7.58654
       O     6.42461    6.78357   -8.37513
      H1     5.80554    7.56088   -8.30158
       H     7.41110    1.57359   -2.77333
       O     7.18533    1.53213   -1.81594
      H1     6.92325    2.46585   -1.54895
       H     3.69104    1.33307   -6.12835
       O     3.04578    1.53219   -6.86319
      H1     2.14816    1.59717   -6.47105
       H     9.77543   -1.21936   -9.06108
       O     9.93776   -1.25214  -10.01655
      H1     9.06651   -0.97768  -10.35942
       H     8.32284   -0.22847   -7.64555
       O     8.28863   -1.19760   -7.77854
      H1     7.96702   -1.55086   -6.92102
       H    11.75712    1.90168   -5.79980
       O    11.37010    2.37188   -6.58301
      H1    11.81649    3.22739   -6.75200
       H     4.48232    5.69997   -1.28629
       O     5.26807    5.46035   -1.87127
      H1     5.77855    6.25542   -1.94146
       H    10.30775   -0.62068   -3.66039
       O     9.37329   -0.62885   -3.40577
      H1     9.37397   -1.00716   -2.54459
       H     7.88239    2.07177   -5.24337
       O     7.81262    2.51448   -4.39449
      H1     8.40210    3.22318   -4.39464
       H     3.77853   -1.48742   -7.68293
       O     3.44047   -0.75072   -8.22157
      H1     3.38931    0.01315   -7.64512
       H     8.99925    5.59995   -3.17370
       O     8.80775    5.93725   -4.07337
      H1     7.92877    6.35181   -4.02219
       H     8.94664    1.94569   -0.25623
       O     8.86910    1.71274    0.67400
      H1     9.69727    2.00764    0.99605

