87
frame 0 | Written by MDAnalysis XYZWriter (release 2.4.3)
       H    17.36499   -1.50474   11.88717
       O    17.28384   -2.02809   12.68453
      H1    16.36536   -2.01196   12.91221
       H    11.62335   -7.65926   10.82613
       O    10.73225   -7.26132   10.92036
      H1    10.97414   -6.41091   11.27565
       H     7.02370   -3.49343   11.47353
       O     6.52151   -3.02505   10.81033
      H1     6.28174   -3.69998   10.16312
       H    14.07006   -7.98516   11.40223
       O    13.45323   -8.14476   10.66594
      H1    13.79824   -7.57357    9.98407
       H    12.40096   -4.59615    6.75555
       O    13.24751   -4.24519    7.02335
      H1    13.50938   -3.69295    6.32687
       H    12.17167    0.60930   13.35501
       O    12.72109   -0.21242   13.66247
      H1    13.26289   -0.35208   12.82939
       H    14.96996    0.17551   10.97903
       O    14.45030   -0.52738   11.45696
      H1    14.30866   -1.25243   10.83734
       H    13.17253    2.11111    6.59564
       O    13.32517    1.72612    5.68984
      H1    13.25619    2.48615    5.07179
       H    14.88895   -2.27733    8.41262
       O    14.80134   -2.59929    9.32140
      H1    15.50313   -3.23404    9.44987
       H    12.07830   -4.70334   13.88097
       O    11.92981   -3.74872   13.97943
      H1    12.08349   -3.31523   13.11285
       H    14.19431   -4.35808    4.51656
       O    14.35875   -3.36685    4.55234
      H1    15.11452   -3.29997    5.13016
       H    14.06779   -1.04719    5.89847
       O    14.06855   -1.23713    6.80674
      H1    13.20126   -1.54680    7.00022
       H    15.91640   -5.24383    9.13655
       O    16.68083   -4.83199    9.51515
      H1    17.12383   -5.58120    9.90808
       H    13.99867   -5.87936    8.20027
       O    14.59688   -6.50360    8.64400
      H1    14.88892   -7.13440    7.91038
       H    10.20043   -0.44888   14.31418
       O     9.30654   -0.32866   14.73783
      H1     8.79500    0.20358   14.06833
       H    11.16018   -6.08358    7.13921
       O    11.73333   -6.53819    6.48656
      H1    11.31068   -6.32223    5.63272
       H     8.54444   -1.62880    8.63101
       O     7.66528   -1.37863    8.98732
      H1     7.41450   -2.20612    9.45980
       H     7.59159   -4.87663   12.61886
       O     8.21714   -4.10524   12.61820
      H1     8.31878   -3.85255   13.52560
       H    10.92591   -1.92257    8.20063
       O    10.22367   -1.56412    7.65520
      H1     9.88626   -2.34670    7.19686
       H    11.59733   -0.91348    9.92831
       O    11.22003    0.03671    9.99898
      H1    10.43252    0.06935    9.38120
       H     9.36848   -6.04397    8.45014
       O    10.27445   -5.90985    8.57979
      H1    10.56373   -6.50385    9.29710
       H     8.43166   -4.36394    6.35777
       O     9.07489   -3.69033    6.17014
      H1     8.94147   -3.56148    5.19331
       H    10.42918   -0.58317    6.10070
       O    10.59758    0.11026    5.51212
      H1    10.01999   -0.08516    4.73172
       H    11.54269   -3.24693    9.93033
       O    11.98260   -2.42790    9.54155
      H1    12.88101   -2.71186    9.45545
       H    11.48734    1.31131   11.61045
       O    11.53922    1.78206   12.44626
      H1    12.12684    2.49800   12.18943
       H    12.25086    2.49763    8.51013
       O    12.92630    1.90224    8.82328
      H1    12.42339    1.17953    9.26941
       H     8.38419    0.71795   10.22336
       O     8.62687    1.47708    9.65179
      H1     8.02088    1.34653    8.92637
       H    10.13851   -4.84902    9.99997
       O    10.42705   -4.47341   10.80762
      H1     9.64173   -4.26842   11.43229
       H    10.22051   -3.42461   14.39661
       O     9.41925   -3.16085   14.91031
      H1     9.37523   -2.21572   14.84170

