87
frame 6 | Written by MDAnalysis XYZWriter (release 2.4.3)
       H    -4.72986   -2.13867  -11.55000
       O    -4.01671   -2.53315  -11.02966
      H1    -3.23098   -2.05355  -11.33847
       H    -4.80785   -2.83405   -7.59028
       O    -4.19454   -2.09775   -7.41211
      H1    -4.27626   -1.42420   -8.15726
       H    -4.64260   -0.62830   -6.30383
       O    -4.93342    0.19880   -5.88138
      H1    -4.14485    0.48128   -5.39602
       H    -7.97085   -1.37292   -8.69142
       O    -8.07944   -2.16820   -9.20309
      H1    -7.29489   -2.39045   -9.69155
       H    -2.00413   -5.23044   -5.82638
       O    -2.85566   -4.92330   -6.18602
      H1    -2.51425   -4.31614   -6.80478
       H    -4.55281   -2.96032   -3.85553
       O    -4.01778   -3.75075   -3.71116
      H1    -3.06917   -3.48328   -3.89887
       H     0.07709   -4.46616  -10.81129
       O    -0.07271   -3.62076  -10.37323
      H1    -0.68126   -3.79459   -9.69803
       H    -1.14410   -6.34950  -10.67785
       O    -1.83041   -6.17945  -10.05424
      H1    -2.61527   -5.90549  -10.59320
       H    -9.90120   -6.04544   -5.16415
       O    -9.80316   -5.62387   -4.32223
      H1   -10.69709   -5.14375   -4.24168
       H    -7.99934   -5.20454  -10.61089
       O    -7.91854   -5.52361   -9.71999
      H1    -7.94172   -6.51048   -9.77232
       H    -7.67358   -4.64562   -4.72361
       O    -6.89487   -4.09144   -4.57117
      H1    -6.60270   -3.89468   -5.48111
       H    -6.82212    1.33015   -8.43624
       O    -7.04614    0.55979   -7.91168
      H1    -6.46977    0.62134   -7.13736
       H    -7.31153   -5.62572   -7.57160
       O    -7.93281   -6.17450   -7.05796
      H1    -7.25661   -6.68459   -6.50931
       H    -1.08067   -2.93668   -7.18218
       O    -1.73133   -3.01560   -7.90508
      H1    -2.56115   -2.62920   -7.54754
       H    -6.83356   -2.23276  -12.21029
       O    -6.18609   -1.52791  -12.16197
      H1    -6.58259   -0.67009  -12.28225
       H    -7.40395   -9.16190  -10.20376
       O    -7.61808   -8.37808   -9.67843
      H1    -6.77719   -7.97621   -9.48939
       H   -10.44635   -8.48516   -6.24225
       O   -10.36787   -7.63423   -6.66255
      H1    -9.45978   -7.49201   -7.00695
       H    -5.78993   -7.20692   -5.11411
       O    -6.40855   -7.68359   -5.70585
      H1    -6.53713   -8.59154   -5.39335
       H    -4.72283   -6.49759   -9.92819
       O    -4.93372   -7.30925   -9.42787
      H1    -4.42614   -7.24284   -8.58115
       H    -3.70201   -7.06742   -4.07212
       O    -4.52650   -6.60146   -4.12173
      H1    -4.32694   -5.64921   -4.00405
       H    -9.90876   -1.44533   -5.22854
       O    -9.41045   -1.25120   -6.05611
      H1    -9.17630   -2.08681   -6.44180
       H    -6.04233   -1.10165   -4.42905
       O    -5.94747   -1.68930   -3.67207
      H1    -6.43038   -2.45630   -3.89595
       H    -4.19323   -4.35116  -10.98727
       O    -4.16494   -5.32448  -10.88541
      H1    -4.15997   -5.48334  -11.83691
       H    -9.21339   -4.85715   -7.10960
       O    -9.59091   -4.00911   -7.41317
      H1    -9.10305   -3.94753   -8.21824
       H    -4.72186   -7.54845   -6.65464
       O    -3.81795   -7.49382   -6.99062
      H1    -3.42765   -6.67975   -6.60809
       H    -8.83523   -3.98877  -12.34533
       O    -7.85714   -3.99084  -12.32085
      H1    -7.54968   -4.39108  -13.13646
       H    -5.58887   -0.14389   -9.22293
       O    -4.63029   -0.28878   -9.38779
      H1    -4.54706   -0.89665  -10.06730
       H    -2.13634   -8.10392  -10.12309
       O    -2.76300   -8.85736  -10.03864
      H1    -3.60745   -8.44233   -9.83224
       H    -4.85517   -5.18312   -7.10812
       O    -5.51470   -4.67426   -7.58318
      H1    -5.59732   -5.14223   -8.41976

