87
frame 0 | Written by MDAnalysis XYZWriter (release 2.4.3)
       H     3.38967    3.06920  -10.86298
       O     4.08866    2.40505  -10.64528
      H1     4.47192    2.68956   -9.79761
       H     0.88054    3.53161   -8.30953
       O     1.16548    4.48194   -8.10110
      H1     0.33452    4.98713   -8.09328
       H    -0.88250    5.58300  -14.07976
       O    -1.48374    4.93878  -14.50040
      H1    -1.45386    4.21248  -13.80198
       H    -0.59842    7.28951  -16.55764
       O     0.33769    7.32599  -16.19849
      H1     0.42541    8.27930  -16.09857
       H     0.56350    6.88610  -10.07217
       O     0.23037    6.02115  -10.34305
      H1     1.04888    5.47026  -10.44092
       H     1.04442    2.50522  -14.03565
       O     1.55378    2.41073  -13.21998
      H1     0.92595    2.22378  -12.51132
       H     0.60949   10.67951  -15.92253
       O    -0.08021   10.15614  -15.59755
      H1    -0.88830   10.15055  -16.15957
       H     3.51021    8.59232  -11.85551
       O     4.24605    8.89700  -11.26562
      H1     4.20851    9.85965  -11.27859
       H    -0.13003    3.32513  -17.23450
       O    -0.34124    3.53682  -18.17940
      H1     0.51831    3.72110  -18.65723
       H    -0.52365    1.21990  -11.80487
       O    -0.20318    1.82137  -11.18988
      H1    -0.82817    2.55786  -11.26747
       H     3.13009    5.21894  -10.25189
       O     2.61139    4.76522  -10.94538
      H1     2.96645    5.11733  -11.77313
       H     5.68503    6.42283  -17.64615
       O     4.76310    6.09040  -17.48110
      H1     4.19208    6.86937  -17.63206
       H     0.21588    6.16383  -12.11206
       O     0.51937    6.29345  -13.06532
      H1     1.28199    5.73382  -13.33670
       H     1.79520    7.28377  -17.54832
       O     2.58679    7.80699  -17.81572
      H1     2.73345    8.42621  -17.07507
       H     3.82432    8.87166  -15.26293
       O     2.97905    9.12766  -15.66625
      H1     2.38786    9.05107  -14.91948
       H    -1.88546    6.54031  -10.19502
       O    -2.33116    7.34677  -10.50071
      H1    -1.65110    7.84228  -11.04041
       H     3.55210    0.05608  -14.24545
       O     2.62241   -0.02180  -14.00620
      H1     2.27295    0.81172  -13.73089
       H    -2.83569    3.03233  -12.39903
       O    -2.18181    3.35283  -11.82058
      H1    -2.68402    4.19075  -11.53026
       H     0.09319    2.29115  -15.68774
       O     0.43956    3.21195  -15.61655
      H1    -0.31424    3.85624  -15.69592
       H    -3.08093    7.02587  -16.24202
       O    -3.43230    6.65117  -15.39290
      H1    -2.72481    6.01185  -15.18761
       H     3.72964    8.81977   -9.72603
       O     3.42323    8.78219   -8.79856
      H1     3.69464    7.88006   -8.62954
       H    -2.86584    8.84645  -13.01458
       O    -3.70947    8.52295  -13.35971
      H1    -3.48806    7.89755  -14.11896
       H     5.18928    5.86202  -15.78238
       O     5.37558    5.41193  -14.92945
      H1     5.89970    5.97257  -14.32620
       H     7.09669    6.91223  -12.24120
       O     6.13262    6.80015  -12.39227
      H1     5.71577    7.59978  -12.10198
       H    -0.78925    9.03835  -13.19155
       O    -1.16633    9.12664  -12.34374
      H1    -1.06240   10.15074  -12.21542
       H     1.36891    9.12903  -12.52330
       O     1.87788    8.53952  -13.05012
      H1     1.35632    7.75719  -13.04328
       H    -0.02268    8.92514   -8.70718
       O     0.69941    8.61945   -9.27860
      H1     1.53876    8.79299   -8.86346
       H     4.37484    4.80514   -8.44767
       O     3.76684    5.56658   -8.56593
      H1     2.92157    5.16309   -8.32981
       H     2.88206    4.14268  -13.39892
       O     2.99336    5.07373  -13.42017
      H1     3.84392    5.28270  -13.81960

