87
frame 6 | Written by MDAnalysis XYZWriter (release 2.4.3)
       H    16.90657  -10.78228  -16.03457
       O    17.83159  -10.59943  -15.90442
      H1    17.95154   -9.89521  -15.24946
       H    14.98117   -7.30452  -18.93137
       O    15.31679   -8.16064  -18.50512
      H1    15.83297   -7.98527  -17.70020
       H     9.46335  -16.41236  -18.38989
       O    10.25836  -15.79073  -18.43862
      H1    11.06173  -16.36287  -18.59421
       H    16.10267  -13.25244  -16.20123
       O    15.67395  -13.53327  -15.38906
      H1    16.19662  -14.25579  -15.07269
       H    13.46213  -17.39485  -14.77209
       O    14.28847  -17.65868  -15.24708
      H1    14.01004  -18.45667  -15.65169
       H    17.69664  -18.17035  -18.95730
       O    18.34452  -18.35034  -19.63886
      H1    19.17265  -18.34898  -19.22648
       H    18.67580  -11.94764  -15.11555
       O    19.10450  -12.78146  -14.79874
      H1    19.25940  -13.30395  -15.60326
       H    18.77655   -7.61248  -19.26497
       O    19.14070   -8.16602  -18.55651
      H1    18.65853   -9.01591  -18.66010
       H    18.32784  -15.82957  -13.44859
       O    17.43073  -15.52309  -13.62817
      H1    17.45389  -14.64751  -13.15298
       H    12.16218   -9.69815  -18.00580
       O    13.07861   -9.53038  -17.76852
      H1    13.42239   -8.68376  -18.04241
       H    12.43640  -12.14215  -19.69159
       O    13.31753  -12.01892  -19.39939
      H1    13.29420  -11.08428  -19.10077
       H    10.52516  -12.84444  -17.74246
       O    11.22560  -12.66526  -17.08265
      H1    12.10253  -12.78878  -17.55225
       H    18.45172   -9.06176  -12.86588
       O    18.80459   -8.78562  -13.69265
      H1    18.22167   -8.09357  -13.97207
       H    13.03014  -16.41183  -19.59335
       O    12.88490  -16.89625  -18.76078
      H1    13.24921  -16.32304  -18.07825
       H    13.07300  -18.61082  -18.74967
       O    12.90111  -19.48325  -18.49444
      H1    13.10032  -20.05364  -19.24670
       H    16.15412  -16.84671  -18.08086
       O    16.30861  -17.80374  -17.82811
      H1    16.44827  -17.76307  -16.88590
       H    15.09075   -9.60131  -14.96057
       O    14.58124   -9.66850  -14.15173
      H1    13.79098  -10.18377  -14.41139
       H    12.88708  -12.76593  -13.38428
       O    13.50157  -13.47945  -13.49429
      H1    14.06678  -13.20020  -14.22393
       H    18.19466  -14.02240  -17.60481
       O    17.29952  -13.63900  -17.58131
      H1    17.28689  -13.07713  -18.32760
       H    14.33453  -10.69801  -17.02675
       O    15.31752  -10.97383  -17.09983
      H1    15.43285  -10.89859  -18.04154
       H    17.25341   -6.75990  -16.21728
       O    16.66891   -7.36639  -15.70508
      H1    15.94234   -6.82197  -15.33827
       H    11.68152  -16.29081  -13.41685
       O    12.28919  -16.05350  -14.12802
      H1    12.65797  -15.20039  -13.82643
       H    18.14731  -13.26940  -11.62071
       O    17.77619  -13.05559  -12.47301
      H1    18.48281  -13.22325  -13.12966
       H    18.26788  -10.83396  -18.02728
       O    18.07133  -10.62144  -18.96505
      H1    18.74069  -11.02282  -19.56685
       H    11.21387  -10.49996  -14.55419
       O    11.88766  -11.28276  -14.54510
      H1    11.84189  -11.63775  -15.40044
       H    15.06042  -16.26070  -12.79621
       O    14.93244  -16.54873  -11.86012
      H1    14.87412  -17.50751  -11.91177
       H    14.61219  -14.59862  -16.33690
       O    14.15062  -15.32843  -16.79603
      H1    14.43180  -16.10950  -16.23259
       H    16.43328  -11.64395  -12.50213
       O    15.87511  -10.97346  -12.07979
      H1    15.53154  -10.41791  -12.81064
       H    19.44451   -5.31149  -16.01149
       O    19.21970   -5.83311  -16.83219
      H1    19.89814   -6.55372  -16.94412

