87
frame 6 | Written by MDAnalysis XYZWriter (release 2.4.3)
       H     8.22972   -0.32514   -0.29798
       O     8.33978   -1.23838   -0.46723
      H1     9.02579   -1.67213    0.08399
       H     6.33971   -0.14162    2.44733
       O     6.56016   -0.97884    2.84241
      H1     6.40915   -1.63053    2.09704
       H     4.56055   -7.10963    3.46566
       O     4.84929   -7.31496    2.59576
      H1     4.01696   -7.28229    2.15340
       H     5.23953   -2.28898   -3.16075
       O     5.28825   -2.86798   -4.00389
      H1     5.37084   -3.85805   -3.82475
       H    11.47171   -2.39587   -0.33078
       O    11.55562   -2.28252   -1.31484
      H1    12.46344   -2.53691   -1.45899
       H     4.40707   -7.03799    6.27641
       O     4.62981   -6.28448    6.95556
      H1     4.92682   -5.59530    6.30790
       H     6.83027   -2.09924    0.24279
       O     6.24829   -2.60671    0.78447
      H1     5.47776   -2.83636    0.22519
       H     6.17210   -5.62653    1.96544
       O     7.00953   -5.17177    1.78016
      H1     6.81887   -4.32583    1.41918
       H    10.04401   -3.78204    5.08791
       O    10.83188   -3.27796    4.80842
      H1    11.26149   -3.64124    4.03365
       H     5.00926   -9.17291    3.02143
       O     5.62534   -9.88895    2.74380
      H1     6.32813   -9.40580    2.31283
       H     1.84556   -2.58849   -0.87230
       O     2.39317   -3.23802   -1.36965
      H1     2.34037   -3.10574   -2.35495
       H     4.79203   -3.73103    5.30184
       O     4.91412   -4.53720    4.78085
      H1     4.10261   -4.64056    4.18036
       H     9.73567   -1.68226    4.14900
       O     9.46375   -0.81115    3.78751
      H1     8.52096   -0.86714    3.49510
       H     2.91474   -4.60516    1.94734
       O     2.51387   -4.79645    2.82376
      H1     1.79896   -4.15309    2.93116
       H     8.89263   -8.70688    1.72924
       O     8.85757   -9.58877    1.39467
      H1     8.55466   -9.47362    0.45917
       H    10.42527   -7.63475    5.01516
       O     9.72152   -7.87188    4.42820
      H1    10.05102   -7.54060    3.62052
       H    10.30359   -1.70320    2.03949
       O    10.34613   -2.26112    1.21804
      H1    10.47886   -3.17044    1.48560
       H    11.67315   -7.97394   -0.30583
       O    11.09096   -7.22747   -0.37027
      H1    10.64255   -7.39984   -1.26280
       H    12.01604   -4.89091    1.88115
       O    11.16632   -4.75409    2.46906
      H1    10.69364   -5.59489    2.24595
       H     7.50123   -5.36405    3.36988
       O     7.86166   -5.49704    4.31843
      H1     8.47487   -6.25160    4.25399
       H     4.79577   -5.95312   -4.31171
       O     5.51363   -5.46266   -3.85453
      H1     6.26836   -5.39734   -4.40933
       H    10.17201   -5.02529   -2.24150
       O    10.38157   -4.24715   -2.67044
      H1    10.70804   -3.55566   -2.11728
       H     6.80909   -2.18870    5.73232
       O     6.31217   -1.42222    5.40676
      H1     6.38039   -1.39155    4.41904
       H     2.85015   -8.16244    0.24003
       O     2.89774   -7.22252    0.46058
      H1     2.00411   -6.96996    0.67205
       H     3.53821   -4.13070   -0.26847
       O     3.86269   -4.56525    0.56585
      H1     3.92413   -5.48828    0.35224
       H     9.99974   -6.91976    1.16426
       O     9.28195   -6.83801    1.79336
      H1     8.58370   -6.29602    1.35207
       H     8.38486   -3.87994    6.83485
       O     8.18437   -3.45597    6.02173
      H1     7.91292   -4.22277    5.44606
       H     4.80497    0.69920    0.70714
       O     3.98582    0.28311    0.45886
      H1     3.62850   -0.10722    1.28325
       H     5.70730   -6.90671   -1.73996
       O     5.69959   -7.89216   -1.52811
      H1     4.92587   -8.05849   -0.98839

