87
frame 7 | Written by MDAnalysis XYZWriter (release 2.4.3)
       H    16.47670   13.17914    4.29286
       O    17.05616   12.49455    3.81326
      H1    16.63268   11.64753    3.74571
       H    13.69382   19.35554   11.04823
       O    14.10064   19.23338   11.89522
      H1    14.57435   18.36044   11.76736
       H    16.95870   19.47149   12.92694
       O    17.28562   18.97700   13.67902
      H1    17.94945   19.46418   14.20854
       H    17.61523   11.64622   12.60702
       O    17.86973   11.70942   13.50102
      H1    18.64591   11.18827   13.54618
       H    13.11420   11.88921    9.06052
       O    12.14950   11.93618    9.28444
      H1    11.94169   12.82004    9.66596
       H    14.07914   16.34307    8.10156
       O    14.14705   16.08179    9.03800
      H1    15.09327   15.82235    9.21560
       H    15.32674   10.32534   10.26011
       O    15.29749    9.95076   11.20095
      H1    15.18668    9.02614   11.20636
       H     9.84394   17.02876   11.57668
       O    10.70657   16.88998   11.08773
      H1    11.44046   16.85592   11.69795
       H    11.08951   17.55421    9.45713
       O    11.17654   17.89134    8.53112
      H1    10.24024   17.88796    8.20442
       H    16.97738   14.38517    9.31993
       O    17.03282   15.37066    9.44842
      H1    17.08363   15.65102   10.40401
       H    17.95944   11.76564    5.67903
       O    17.54491   11.41068    6.48493
      H1    18.21931   10.84484    6.85330
       H    13.64427   17.35386    5.82944
       O    14.47369   17.34694    6.31405
      H1    14.57425   18.26137    6.65427
       H    17.55924   12.02846    9.54618
       O    17.18445   12.73448    9.01980
      H1    17.34872   12.39029    8.10853
       H    15.65552   15.18833    5.20651
       O    15.47004   14.25911    5.27829
      H1    15.96698   13.90229    6.08209
       H    19.20679   14.55934   13.98963
       O    18.26328   14.30699   14.07670
      H1    18.16393   13.38722   14.06331
       H    12.51068   19.17980    9.22899
       O    13.19275   19.84932    9.25902
      H1    13.87984   19.46017    8.64098
       H    17.98156   19.83972    8.44707
       O    17.48166   19.20753    7.85991
      H1    17.62257   19.63147    7.00641
       H    15.63861   11.86915    8.84664
       O    14.99862   11.19645    8.78551
      H1    15.01106   11.03070    7.87483
       H    14.64198    9.62745    6.27275
       O    14.66903   10.57249    6.09489
      H1    15.63120   10.61514    6.04886
       H    15.38439   15.16601   13.32697
       O    14.86719   14.91922   14.13119
      H1    14.39400   14.12838   13.75971
       H    11.11419   15.13979   10.59621
       O    11.20577   14.17275   10.70720
      H1    10.41895   13.92478   11.28371
       H    18.78812   10.40404   10.42469
       O    18.06244   10.95573   10.84093
      H1    17.38651   10.31235   11.03563
       H    19.01578   15.00542    5.36231
       O    18.29985   14.95127    4.67167
      H1    18.14632   14.01268    4.44020
       H    18.17797   16.13170    8.28787
       O    18.61226   16.79998    7.66874
      H1    18.14985   17.59861    7.74799
       H    13.22285   15.54819   12.38181
       O    13.37860   16.28410   11.82792
      H1    13.72633   15.92930   11.01170
       H    16.11184   17.57732    5.30980
       O    16.91883   17.60199    4.75640
      H1    17.58840   17.17263    5.27368
       H    16.60522   11.51225   14.91489
       O    15.87023   11.99052   15.27158
      H1    16.01089   12.91205   15.03679
       H    12.43837   13.54974   11.94270
       O    13.15951   13.16279   12.53336
      H1    13.16190   12.18951   12.41969
       H    17.34648   17.05009   12.87377
       O    17.10928   16.20616   12.59342
      H1    17.57001   15.49247   13.12523

