87
frame 0 | Written by MDAnalysis XYZWriter (release 2.4.3)
       H    13.26905   17.00140   13.67948
       O    13.15474   16.63694   12.79705
      H1    12.19657   16.65355   12.76524
       H     6.90092   12.40470   17.05649
       O     7.47168   13.06508   16.66278
      H1     8.25667   12.52809   16.41986
       H    13.36618   19.75498   14.91940
       O    13.18791   18.78884   14.92688
      H1    14.06251   18.36196   15.03841
       H    11.95024   13.12714   16.09568
       O    11.85314   12.55766   16.91466
      H1    11.37601   13.10495   17.50987
       H    14.06497   14.40263   19.35401
       O    13.35219   14.29807   19.96603
      H1    13.11157   13.34662   19.91307
       H    10.45060   11.56607   16.63336
       O     9.75873   10.91024   16.90347
      H1     9.68974   10.32775   16.15768
       H    14.06631   19.33598   18.17632
       O    13.19729   18.98448   18.47541
      H1    12.85159   18.31163   17.79056
       H    18.45974   18.83875   19.20611
       O    17.98066   17.95190   19.18462
      H1    17.07529   18.24519   19.28244
       H    11.27050   15.24996   15.56322
       O    11.31705   14.50934   14.98938
      H1    11.79321   14.68534   14.15134
       H    15.21002   16.30481   15.63301
       O    15.24946   17.20768   15.35753
      H1    16.12473   17.45773   15.65000
       H    11.71741   14.76363   18.68795
       O    10.80523   14.47882   18.70206
      H1    10.30994   15.21898   18.29993
       H     9.98163   13.86970   14.28244
       O     9.22941   13.56408   13.70479
      H1     8.42740   13.60029   14.22460
       H    10.24376   10.44904   18.52938
       O    10.38540    9.91773   19.33197
      H1    11.11485   10.37631   19.81559
       H     5.39929   16.43722   19.22604
       O     5.00098   17.30795   19.41680
      H1     5.79203   17.81980   19.67391
       H     6.93686   14.30776   17.77825
       O     6.53682   14.88826   18.42002
      H1     6.75014   14.61254   19.29861
       H    17.56682   13.21870   16.86395
       O    17.56499   14.14020   16.44870
      H1    16.98870   14.65645   16.98516
       H    13.21248   14.88758   12.72622
       O    13.11836   13.93267   12.87918
      H1    13.30525   13.54482   11.99940
       H    16.87198   10.67698   17.67419
       O    16.63144    9.79704   17.28850
      H1    15.94049   10.05650   16.67070
       H     8.41634   17.35564   17.74388
       O     8.62428   16.52235   18.15452
      H1     7.80613   15.95652   18.21565
       H     6.79075   16.35324   14.41484
       O     6.50014   16.83103   15.27732
      H1     5.92500   16.18678   15.72820
       H    17.77002   12.40011   19.22592
       O    17.89729   11.82010   18.47022
      H1    18.39504   11.05422   18.76452
       H     7.67628   18.12342   15.99927
       O     8.30620   18.65102   16.45388
      H1     7.84866   19.45436   16.78083
       H    15.81515   13.90600   15.05993
       O    14.98191   14.32266   15.27910
      H1    14.36483   13.96253   14.68569
       H     7.77553    8.50237   19.52794
       O     7.66120    9.47696   19.73198
      H1     8.60499    9.79398   19.64590
       H    15.17721   14.50922   17.32635
       O    15.30579   14.87964   18.21234
      H1    15.10632   15.81271   18.33016
       H    11.79134   18.17184   16.01625
       O    11.38079   17.53423   16.61525
      H1    10.44044   17.74439   16.76966
       H    15.61769    9.91615   18.67153
       O    15.07083   10.05966   19.42513
      H1    15.53570   10.33828   20.23906
       H    12.52112    9.48133   17.05086
       O    13.11922    8.81162   17.32872
      H1    13.59140    9.13015   18.09473
       H    10.74006   18.10192   12.36414
       O    10.61487   17.74555   13.26394
      H1    10.59635   18.53456   13.85469

