87
frame 6 | Written by MDAnalysis XYZWriter (release 2.4.3)
       H    17.67182    6.33562    5.08357
       O    18.55657    6.09081    5.33172
      H1    19.15936    6.66433    4.92716
       H    16.20783   12.27317    4.17347
       O    16.48408   12.63832    3.32494
      H1    16.71230   11.88457    2.81615
       H    13.77583    4.89482    2.22049
       O    13.88033    4.24823    1.49769
      H1    14.21905    3.49117    2.00256
       H    13.35962    9.27334    2.54354
       O    13.25578    8.49340    1.99515
      H1    13.63838    8.77456    1.12012
       H    15.79634   13.11879    1.53350
       O    16.25199   13.29012    0.69144
      H1    15.49439   13.13498    0.04335
       H    19.13361    7.70332    8.08886
       O    18.95004    6.80031    7.99561
      H1    18.78582    6.67999    7.02293
       H    14.33520    9.96467    9.52931
       O    14.91929    9.42310   10.15960
      H1    15.26110    8.67804    9.57613
       H    12.47004    7.29429    6.30202
       O    12.46853    7.78434    5.45178
      H1    11.60214    8.21668    5.35823
       H    18.69561    9.68690    1.53438
       O    18.74223    9.66421    2.48430
      H1    19.32092    8.94491    2.72235
       H    17.18538    9.72193    3.42291
       O    16.47330    9.77447    4.05972
      H1    16.21393    8.84029    4.14614
       H    19.00577   10.87967   -0.49742
       O    19.02045    9.94678   -0.31979
      H1    18.35811    9.55143   -1.01335
       H    17.55537   10.94312    5.34715
       O    17.80024   11.74072    5.87079
      H1    18.74691   11.60729    6.07281
       H    16.03825    6.92712    6.32317
       O    16.16215    7.11607    5.34598
      H1    15.38948    6.76593    4.83902
       H    16.66099   11.89429    9.24776
       O    16.20053   12.35768    8.53481
      H1    16.84650   12.26202    7.82915
       H    13.95208    6.97324    3.03922
       O    14.21869    6.15158    3.42882
      H1    13.57594    6.05898    4.15021
       H    14.54607   13.30257    6.21747
       O    14.30373   12.55948    5.69115
      H1    13.74116   12.02013    6.23413
       H    18.20397   13.28590   -1.93923
       O    17.95999   12.52995   -1.44212
      H1    17.45624   12.65427   -0.61647
       H    14.34531   11.81214    8.75973
       O    13.65308   11.17734    8.44778
      H1    14.19623   10.70982    7.82037
       H    13.81439    8.89357    6.26497
       O    14.57008    9.34036    6.72779
      H1    15.30256    9.24493    6.09410
       H    16.92179    4.66897    1.79933
       O    16.92904    5.30463    2.49293
      H1    17.58926    5.18555    3.16224
       H    10.33831    8.76906    1.92302
       O    10.63283    7.96160    2.37912
      H1    11.59424    8.12019    2.27876
       H    17.87784   10.54779    9.71380
       O    17.31541   10.88117   10.49284
      H1    16.54689   10.35661   10.45706
       H    18.49177   14.69185    5.01051
       O    18.34813   14.56177    4.09842
      H1    17.70444   13.81192    4.12869
       H    15.29333    8.10071   -0.36272
       O    14.36037    8.13146   -0.51322
      H1    14.05309    7.38407   -1.01134
       H    15.75848   15.54509    6.75592
       O    16.17786   14.67187    6.72439
      H1    16.56955   14.61958    5.82677
       H    14.76917    6.52269    8.04634
       O    15.67317    6.24731    7.84538
      H1    16.03740    6.02406    8.70509
       H    14.68366   10.50702    3.36145
       O    13.80677   10.85582    3.54923
      H1    14.05896   11.71328    3.99671
       H    13.41809   13.86203    2.64654
       O    12.89264   13.10296    2.34014
      H1    13.21823   12.30206    2.78676
       H    17.30843    6.82676    1.10407
       O    17.28746    7.48847    0.45392
      H1    17.26981    6.85824   -0.34977

