87
frame 7 | Written by MDAnalysis XYZWriter (release 2.4.3)
       H    -0.86259   16.45909   -3.19914
       O    -1.32911   16.24444   -2.38640
      H1    -1.57683   17.13010   -2.04084
       H     1.82733   15.48376   -1.90888
       O     1.04413   15.00066   -1.63025
      H1     0.25385   15.48403   -1.91303
       H     2.54339   10.89892   -2.42767
       O     2.59420   10.09310   -2.94391
      H1     2.78121    9.38673   -2.35045
       H     3.38550   12.31990   -6.65490
       O     3.93761   13.01212   -6.97980
      H1     3.49251   13.89289   -6.85976
       H     3.79725   18.81622   -4.09209
       O     3.45079   18.64310   -3.15427
      H1     2.57747   19.04880   -3.13679
       H     3.60092   18.99163    0.35250
       O     2.93302   19.22441    0.98798
      H1     2.12187   18.73394    0.84147
       H    -0.11756   16.41063   -5.63581
       O    -0.67133   16.79596   -4.97150
      H1    -0.70155   17.75457   -5.15385
       H     4.45924   13.32387    0.10005
       O     4.21324   12.34140    0.09409
      H1     4.92414   11.98818   -0.47054
       H     7.07589   18.32137   -3.45714
       O     6.67372   17.41883   -3.19019
      H1     6.91089   17.24255   -2.22725
       H     3.24432   16.85442   -2.73225
       O     3.31395   15.97528   -2.48269
      H1     3.88747   15.87929   -1.70305
       H     3.70357   14.57926    2.65020
       O     3.28621   15.16589    2.04921
      H1     3.37537   16.08935    2.42143
       H     1.58430   14.07640   -6.24392
       O     1.47753   14.45045   -7.12849
      H1     1.64430   13.70997   -7.73508
       H    -1.29834   11.72284   -1.07221
       O    -1.43393   11.67839   -1.96997
      H1    -2.20663   11.09366   -2.13136
       H    -0.81734   15.43405    2.85137
       O    -0.16896   16.13165    2.96769
      H1    -0.32245   16.48147    3.89263
       H     1.64231   13.87900    1.54864
       O     1.12550   13.64491    0.79764
      H1     1.28394   14.18181    0.01553
       H     5.91102   18.66879   -0.79167
       O     4.95582   18.88768   -0.70948
      H1     4.57410   18.80501   -1.55493
       H     5.04392   11.69011   -4.01827
       O     5.03124   10.75875   -3.84941
      H1     4.13581   10.54593   -3.65980
       H     0.51408   18.19236    1.66554
       O     0.34101   17.90562    0.77861
      H1     0.43912   16.93922    0.77184
       H    -0.40120   11.07309    1.06542
       O     0.12445   10.91041    0.30012
      H1     0.76240   11.67313    0.34078
       H     4.50325   18.23042   -6.22098
       O     5.02541   18.53980   -5.45467
      H1     5.30501   17.70821   -5.09762
       H    -1.32761   18.36167   -0.17895
       O    -2.06074   18.48059   -0.82885
      H1    -2.88053   18.36468   -0.31828
       H     2.12392   12.33306    2.87336
       O     2.37780   11.49196    2.53573
      H1     2.68921   11.65705    1.64312
       H     4.49669   14.34862   -3.97953
       O     5.25339   13.76789   -4.20214
      H1     5.32747   13.80032   -5.13812
       H     4.49238   17.90943    3.45448
       O     3.61525   17.56206    3.14112
      H1     3.39579   18.09867    2.40649
       H     2.21724   14.46359   -3.79106
       O     2.11782   13.87158   -4.55948
      H1     2.24489   12.96582   -4.28974
       H     0.49282   13.38189    3.69087
       O     1.29873   13.89099    3.55931
      H1     1.06749   14.72859    3.10298
       H     2.69671   12.61794   -0.94894
       O     2.21936   12.59339   -1.76747
      H1     1.50657   13.22048   -1.82134
       H    -2.73373   13.49601   -3.85306
       O    -2.10227   14.02388   -4.43548
      H1    -1.58251   14.50295   -3.81254
       H     4.34249   15.33431    0.61347
       O     4.70866   15.13247   -0.26505
      H1     5.68614   15.21929   -0.24962

