87
frame 0 | Written by MDAnalysis XYZWriter (release 2.4.3)
       H   -10.78352  -16.02988   -7.10330
       O   -10.37781  -15.70651   -7.90041
      H1   -10.03279  -16.51610   -8.32587
       H    -9.49369  -18.97306   -7.33927
       O    -9.47133  -19.07114   -6.41392
      H1   -10.34799  -18.89963   -6.04145
       H    -1.44407  -15.59197   -9.50814
       O    -2.12712  -15.36748   -8.83713
      H1    -2.56701  -14.64273   -9.31407
       H    -9.92012  -16.05290   -3.06312
       O    -9.60970  -15.58645   -3.84832
      H1    -8.90070  -16.17044   -4.20607
       H    -1.48477  -18.58577   -7.23125
       O    -0.93312  -19.33831   -7.61807
      H1    -1.49718  -20.06022   -7.38934
       H    -3.69625  -16.98675   -3.48896
       O    -2.80342  -16.67462   -3.72808
      H1    -2.57688  -17.05540   -4.62237
       H    -6.72061  -17.34824  -11.15217
       O    -6.01362  -17.47616  -11.85194
      H1    -6.32221  -17.04566  -12.71024
       H    -4.64827  -14.66096  -12.35658
       O    -5.04551  -13.91138  -11.89514
      H1    -4.77432  -13.28495  -12.57837
       H    -9.87110  -14.09649   -7.46125
       O    -9.35316  -13.29489   -7.28289
      H1    -8.64563  -13.65924   -6.70568
       H    -2.59896  -14.61070   -4.39263
       O    -2.75414  -13.71818   -4.14157
      H1    -2.84618  -13.06371   -4.90059
       H    -8.33660  -18.08296   -5.49455
       O    -7.70287  -17.34415   -5.27395
      H1    -7.40269  -17.03925   -6.16995
       H    -6.71281  -14.96759   -7.00654
       O    -6.57008  -15.88196   -7.40108
      H1    -6.96605  -15.90638   -8.28490
       H    -2.91691  -15.84471  -12.83700
       O    -3.85014  -16.04378  -12.98839
      H1    -4.14528  -16.61592  -12.22577
       H   -10.20091  -18.10104   -9.91229
       O    -9.62382  -17.96580   -9.15412
      H1    -8.72731  -18.27913   -9.33748
       H    -6.46664  -19.09642   -9.03641
       O    -7.19803  -19.10866   -9.65264
      H1    -6.86140  -19.71645  -10.39302
       H    -6.26111  -12.97495   -6.21770
       O    -7.03893  -13.43598   -5.84689
      H1    -7.06494  -13.46302   -4.87299
       H    -4.19597  -13.43330  -10.41892
       O    -3.62515  -13.07050   -9.69917
      H1    -4.10376  -12.96618   -8.89361
       H    -5.62329  -17.89198   -2.83449
       O    -5.38115  -17.85944   -3.79462
      H1    -6.15769  -17.49432   -4.20722
       H    -2.97850  -17.14512   -6.87035
       O    -2.08457  -17.26019   -6.35644
      H1    -1.65922  -16.37388   -6.49574
       H    -4.34422  -11.68072   -6.84543
       O    -5.09064  -12.17429   -7.36693
      H1    -5.56372  -11.44694   -7.72576
       H     0.61053  -17.74224  -10.09779
       O    -0.24885  -17.56026   -9.69357
      H1    -0.48250  -18.30967   -9.09792
       H    -7.44866  -13.68820   -2.44683
       O    -6.89120  -14.04159   -3.10375
      H1    -6.03382  -14.10528   -2.71299
       H    -1.72765  -19.17483  -12.54867
       O    -2.15150  -18.72909  -11.84453
      H1    -1.50152  -18.42165  -11.25502
       H    -6.85290  -15.15149  -10.59567
       O    -7.54712  -15.30476   -9.93449
      H1    -8.38281  -15.08252  -10.41519
       H     1.50250  -16.21315   -7.52819
       O     0.56457  -16.07141   -7.49822
      H1     0.28960  -16.22160   -8.43680
       H    -7.97205  -17.17638   -2.41714
       O    -7.29831  -16.50833   -2.09148
      H1    -7.35366  -15.77950   -2.75195
       H    -3.51263  -16.64461   -8.49929
       O    -4.21321  -17.17653   -7.99313
      H1    -4.96007  -16.59018   -7.70052
       H    -7.32232  -13.01399   -9.83426
       O    -7.24414  -12.13615  -10.16105
      H1    -7.99556  -11.63186   -9.78944
       H    -4.12761  -19.00243   -8.36904
       O    -4.43957  -19.92274   -8.30438
      H1    -4.53818  -19.96856   -7.33406

