87
frame 7 | Written by MDAnalysis XYZWriter (release 2.4.3)
       H    -2.11741   -8.23969    0.28896
       O    -2.84704   -8.60457    0.80507
      H1    -3.00266   -8.11250    1.63450
       H     4.92181   -7.19996    2.87614
       O     5.19201   -6.64778    2.11811
      H1     4.57061   -6.98997    1.46918
       H     0.69949   -8.58795    1.87067
       O     0.64156   -8.40673    0.91795
      H1     1.48587   -7.95478    0.67285
       H    -4.77017   -8.08804   -1.73199
       O    -4.55762   -9.00968   -1.62880
      H1    -3.90591   -9.00423   -0.94952
       H    -0.18350   -8.68974   -2.42280
       O     0.49680   -9.12718   -2.92981
      H1     0.24647   -9.16442   -3.81231
       H    -1.21129   -6.01671    5.97530
       O    -0.52726   -6.66564    6.19263
      H1    -1.04958   -7.39097    6.55477
       H     1.73595   -6.80959    3.84245
       O     1.05660   -7.42934    3.54096
      H1     0.80747   -7.81662    4.36604
       H    -0.58383   -5.14300    0.94336
       O    -0.60079   -4.49468    0.24792
      H1     0.24600   -4.54591   -0.19004
       H     4.59257  -10.63956    2.06299
       O     5.52204  -10.97580    1.97703
      H1     6.10579  -10.21707    1.88684
       H     2.81070  -10.66048    3.50194
       O     3.05301   -9.91763    2.95076
      H1     2.40552   -9.15335    3.00775
       H     1.96931   -4.41348   -1.38815
       O     1.94694   -5.37584   -1.46243
      H1     1.50998   -5.61914   -2.28645
       H     3.74883   -4.35682    5.27117
       O     4.23181   -4.86164    4.67772
      H1     3.71874   -4.86894    3.81897
       H     3.33229   -4.44211    1.50991
       O     2.73116   -4.75129    2.20277
      H1     2.08577   -4.02024    2.32650
       H    -3.55748  -10.80921    5.37829
       O    -3.24746   -9.94872    5.01269
      H1    -3.19368  -10.14481    4.05946
       H    -2.01770   -7.05147   -1.46522
       O    -1.33414   -7.69547   -1.10929
      H1    -0.78156   -7.17854   -0.59262
       H    -1.91450   -9.51790    5.99792
       O    -1.25798   -9.16473    6.62787
      H1    -0.89483   -9.95640    7.14200
       H     0.21733  -10.27104   -1.34848
       O     0.20543  -10.97227   -0.70258
      H1     0.49450  -10.50138    0.05405
       H    -2.53784  -10.06634    1.95829
       O    -2.52451  -10.78216    2.55112
      H1    -3.34115  -11.27935    2.59880
       H     0.31858   -9.57004    5.94936
       O     1.18788   -9.82032    5.49951
      H1     1.74293  -10.13130    6.22686
       H     4.01440   -9.22533    4.44510
       O     4.74803   -9.01800    5.00028
      H1     5.30407   -9.78221    5.14924
       H    -2.24480   -6.94911    3.17968
       O    -3.10936   -7.43234    3.25851
      H1    -3.60367   -7.09338    4.00227
       H    -2.03642   -4.95387   -0.83630
       O    -2.75044   -5.30283   -1.39696
      H1    -2.74230   -4.64856   -2.17898
       H     3.93340   -8.38090   -0.52457
       O     3.92535   -7.45413   -0.35443
      H1     3.38942   -6.89368   -0.94080
       H     0.35705  -10.66961    4.02318
       O     0.31240  -11.39270    3.33589
      H1    -0.47936  -11.17190    2.85440
       H     3.41322  -13.26978    4.59768
       O     3.10624  -12.55643    4.03106
      H1     2.53153  -12.93243    3.31456
       H     1.77547  -11.85172   -1.29156
       O     2.68639  -12.18024   -1.26303
      H1     2.79874  -12.72178   -2.02613
       H    -1.09998   -5.19995    3.33260
       O    -0.98829   -5.85535    2.58539
      H1    -0.29200   -6.36345    2.97299
       H    -3.04920  -11.67523    0.24465
       O    -2.39350  -11.88512   -0.37278
      H1    -1.56202  -11.44435   -0.09960
       H     5.05588  -10.40386    0.29307
       O     4.64913  -10.16320   -0.58805
      H1     4.05493  -10.94518   -0.77591

