87
frame 7 | Written by MDAnalysis XYZWriter (release 2.4.3)
       H    15.26301  -10.62013   13.94433
       O    15.30191  -11.27615   14.57956
      H1    14.58538  -10.98877   15.20852
       H    12.21173  -16.68727   12.25000
       O    12.50622  -16.24879   11.44038
      H1    11.83515  -16.54922   10.76688
       H     9.03961  -14.09476   13.99369
       O     9.67301  -14.66593   14.43221
      H1     9.20404  -15.11746   15.18321
       H     8.15910  -11.54897   11.13146
       O     7.74998  -11.03267   10.43910
      H1     8.50111  -10.68240    9.98147
       H     8.62901  -15.57379   19.37848
       O     9.45600  -15.08464   19.45898
      H1     9.37937  -14.17531   19.00283
       H    12.85507  -13.57468   15.11523
       O    12.03271  -13.34968   15.59688
      H1    11.34181  -13.96309   15.28853
       H    11.58280  -11.76927   14.71076
       O    11.19485  -10.95037   14.37697
      H1    11.28842  -11.01031   13.40315
       H    10.58446  -16.02449   14.07931
       O    11.23041  -16.79578   14.06753
      H1    10.83345  -17.45090   13.49806
       H    12.53700  -10.02784   15.90777
       O    13.34777  -10.25771   16.41598
      H1    13.65804   -9.42962   16.74862
       H    14.86225  -12.36108   10.03052
       O    14.05993  -11.98467    9.70339
      H1    13.38372  -12.56711   10.12952
       H     8.18594   -9.45080   13.08603
       O     8.45489   -8.50217   13.00409
      H1     8.86219   -8.48973   12.12390
       H    10.40932   -7.09725   14.81458
       O    10.64289   -7.96050   14.45891
      H1     9.89895   -8.19470   13.83967
       H    10.45633  -10.21430   15.74355
       O    10.29187   -9.92979   16.67927
      H1    10.57948  -10.66269   17.24684
       H    11.09545   -8.05343   17.45181
       O    11.28540   -7.27184   17.97261
      H1    11.04885   -7.40572   18.90119
       H    10.01622  -12.07170   19.55514
       O    10.27431  -12.51927   18.75882
      H1    11.22411  -12.69802   18.86107
       H    13.70876   -7.20176   15.31217
       O    13.30065   -7.70938   14.55251
      H1    12.31705   -7.72132   14.55053
       H    14.89989  -12.99871   17.72559
       O    15.55838  -13.34145   17.16372
      H1    16.21762  -12.67193   16.96044
       H    18.10953  -12.18208   15.73313
       O    17.61120  -11.47741   16.19372
      H1    16.83125  -11.27019   15.68410
       H    16.57818  -13.02535   14.42491
       O    17.33220  -13.50593   14.14165
      H1    16.98537  -14.18400   13.50307
       H    11.64161  -11.27678   10.45429
       O    11.62109  -10.73046   11.23474
      H1    12.56492  -10.54980   11.35331
       H    10.56944   -9.33692   10.92248
       O     9.98202   -8.55890   10.72129
      H1    10.52631   -7.82650   10.48086
       H    14.37840  -14.48492   14.31463
       O    14.01412  -13.66516   13.93991
      H1    14.60446  -12.96378   14.29389
       H     7.88551  -12.02598   13.30140
       O     8.41482  -12.71032   12.77864
      H1     7.69944  -13.39581   12.61706
       H    13.09453  -14.13442   18.39380
       O    12.93541  -13.18552   18.25301
      H1    12.53272  -13.21857   17.34519
       H    13.86382   -8.93355   13.15305
       O    14.11632   -9.47947   12.41352
      H1    15.01263   -9.20136   12.15673
       H    12.56971  -14.62616   11.23929
       O    12.39334  -13.71248   10.96574
      H1    11.97009  -13.40921   11.81298
       H    15.80523  -16.04441   15.63081
       O    15.21985  -15.95108   14.90050
      H1    14.79705  -16.86483   14.90007
       H     7.48042   -8.29171   17.25526
       O     7.69071   -9.09010   16.79402
      H1     8.55953   -9.45121   17.02430
       H     7.58760  -10.33950   15.21542
       O     7.38601  -10.68145   14.34355
      H1     6.51956  -10.25039   14.18623

