87
frame 7 | Written by MDAnalysis XYZWriter (release 2.4.3)
       H    -7.64159   -8.36252  -17.64333
       O    -7.91671   -9.29721  -17.66568
      H1    -7.86862   -9.64629  -18.52516
       H    -9.64482   -4.86603  -16.54749
       O    -9.93049   -5.74913  -16.78262
      H1   -10.32435   -5.59182  -17.63028
       H   -11.93256   -4.61248  -11.62988
       O   -12.43789   -4.87009  -10.82805
      H1   -12.76168   -4.03726  -10.49025
       H   -12.65584   -9.67347  -13.74168
       O   -13.24955   -8.93742  -13.43252
      H1   -14.13313   -9.18883  -13.73078
       H    -7.94184   -9.43647  -15.89182
       O    -7.92820   -9.40352  -14.89570
      H1    -8.12479   -8.49444  -14.63428
       H   -10.68242   -9.61982  -19.22884
       O   -10.35353   -8.70206  -19.45474
      H1    -9.45406   -8.62942  -18.94106
       H   -13.28805   -2.76888  -13.97754
       O   -12.41729   -2.36251  -13.89648
      H1   -12.49042   -1.40455  -13.96625
       H   -12.35747   -8.73827  -16.61147
       O   -12.36756   -7.70356  -16.58474
      H1   -11.61928   -7.47481  -17.13572
       H    -7.38436   -3.18773  -18.06118
       O    -7.65411   -3.35112  -19.00569
      H1    -7.09436   -4.12151  -19.28719
       H   -11.54065   -8.66198  -11.09716
       O   -10.87853   -8.08632  -11.41061
      H1   -11.17164   -7.79486  -12.28271
       H    -7.29525   -2.75199  -13.27774
       O    -6.70624   -2.01767  -13.36810
      H1    -6.93448   -1.44122  -12.63020
       H   -11.45627   -3.64596  -13.25255
       O   -10.80715   -4.31689  -13.08634
      H1   -11.04616   -5.08048  -13.61515
       H   -15.55676   -3.12458  -17.77466
       O   -15.13441   -3.99000  -18.04481
      H1   -14.89305   -3.75082  -18.90387
       H    -9.75951   -2.32413  -16.26673
       O    -9.28906   -2.95596  -15.76343
      H1    -9.72264   -3.01337  -14.92553
       H    -6.36143   -6.86205  -17.00152
       O    -7.24581   -7.00932  -16.73369
      H1    -7.77769   -6.30361  -17.07485
       H   -15.11411   -6.09351  -17.47290
       O   -14.99204   -7.03581  -17.41514
      H1   -14.06477   -7.24734  -17.17858
       H    -8.11257    0.05169  -18.22237
       O    -7.44091   -0.34031  -17.59725
      H1    -6.98322   -1.07995  -17.93489
       H   -12.25164   -7.47967  -13.66809
       O   -11.64832   -6.78388  -14.00911
      H1   -11.64241   -6.98924  -14.95970
       H   -13.55998   -4.14826  -17.11386
       O   -12.65554   -3.79637  -16.97305
      H1   -12.34643   -4.28580  -16.23880
       H   -11.56220   -1.23032  -17.75965
       O   -11.54242   -1.55672  -16.85089
      H1   -12.16655   -2.28329  -16.87181
       H    -3.70899   -6.34147  -13.52872
       O    -4.65448   -6.49051  -13.39542
      H1    -5.23333   -5.97800  -13.98577
       H    -9.13919   -4.10744  -12.51535
       O    -8.19338   -4.18179  -12.60583
      H1    -7.93874   -4.56400  -13.47437
       H   -11.32064   -0.48226  -15.55926
       O   -11.41447    0.34327  -15.05929
      H1   -10.77732    0.17950  -14.33873
       H    -7.48122   -2.86650  -16.02693
       O    -6.62372   -3.17955  -16.35683
      H1    -5.96159   -2.38168  -16.18472
       H    -3.94738   -5.91758  -17.10817
       O    -4.67107   -6.51609  -17.43641
      H1    -4.25738   -7.26882  -17.81731
       H    -6.62584   -4.45625  -15.19716
       O    -6.80999   -5.24001  -14.64214
      H1    -6.90870   -5.94429  -15.30408
       H    -7.41355  -12.26624  -17.68418
       O    -8.19030  -12.02536  -17.14638
      H1    -8.23097  -11.09811  -17.28501
       H   -12.12647  -10.60475  -17.13993
       O   -12.70048  -10.35675  -16.34044
      H1   -12.12093  -10.49715  -15.57920
       H   -13.79975   -5.84905  -13.57979
       O   -14.59922   -5.36055  -13.43564
      H1   -14.72884   -5.52706  -12.49052

