87
frame 8 | Written by MDAnalysis XYZWriter (release 2.4.3)
       H    17.17268   -2.56767   12.86904
       O    16.98982   -2.73631   13.83305
      H1    17.11795   -1.91301   14.32166
       H    13.66317    5.66943   15.62174
       O    13.46419    4.89151   16.22516
      H1    12.96535    4.26223   15.66789
       H    16.03938   -0.83295   18.22795
       O    16.82829   -0.28797   18.15003
      H1    16.55569    0.58939   18.43146
       H    17.94213   -3.89016   11.19472
       O    18.12153   -2.92707   11.35755
      H1    18.80332   -2.80212   12.00192
       H    17.97153    0.19137   15.31485
       O    17.39010   -0.60094   15.36519
      H1    17.08102   -0.56873   16.24783
       H    11.62738    2.71326   13.71674
       O    12.07845    2.46748   14.58393
      H1    12.99044    2.37765   14.21614
       H    15.10208    2.73673   12.38243
       O    14.15997    2.95126   12.26664
      H1    13.77548    2.23006   11.72552
       H    15.35252   -2.07397    9.75666
       O    15.35817   -2.13684   10.71772
      H1    16.18310   -2.65585   10.97210
       H    17.06199    3.48342   13.31629
       O    16.95650    3.99968   14.10757
      H1    16.42402    3.42417   14.69409
       H    13.50567   -1.69488   13.24774
       O    13.39509   -0.73230   13.25842
      H1    13.67983   -0.57802   12.30661
       H    15.89083    0.45938   14.99389
       O    14.99136    0.84592   15.03855
      H1    14.45967    0.33530   14.38759
       H    13.02536   -4.67428   19.09684
       O    13.89189   -4.84135   18.83402
      H1    14.54757   -4.27333   19.21205
       H    16.40932   -0.67396   11.20163
       O    16.89831    0.13134   11.13878
      H1    17.77214   -0.11115   10.91624
       H    16.51278   -3.70869   17.41053
       O    16.34755   -3.07612   18.11579
      H1    16.65817   -3.53076   18.93300
       H    19.53781   -4.46208   15.17050
       O    18.80910   -4.60705   14.56598
      H1    18.42368   -3.72902   14.48525
       H    13.59157   -6.70025   11.82197
       O    14.38767   -6.16265   11.68986
      H1    14.26848   -5.38142   12.27835
       H    16.46286    2.64430   18.22361
       O    16.83889    2.26920   19.01861
      H1    17.77243    2.09153   18.95506
       H    11.61442   -1.78890   16.49520
       O    12.51047   -1.46787   16.27150
      H1    12.43352   -1.30585   15.29417
       H    16.88791    3.18934   10.86902
       O    17.13702    2.77830   11.71801
      H1    17.05164    1.82262   11.61186
       H    13.27959   -3.29336   16.35594
       O    13.83598   -4.08673   16.27533
      H1    13.89631   -4.33333   17.23074
       H    15.65847   -4.61041   15.67422
       O    16.48524   -5.01923   16.04095
      H1    17.26540   -4.79450   15.54001
       H    15.01430    2.59683   16.07967
       O    15.58320    3.22600   16.54740
      H1    14.94426    3.93998   16.65231
       H    18.45984   -6.29087   13.59193
       O    18.75503   -7.10252   13.18687
      H1    19.71777   -7.00093   13.31713
       H    13.47257   -0.32497   17.16715
       O    14.12012    0.24310   17.59236
      H1    14.73153    0.38016   16.80192
       H    14.00311   -4.06036   14.16390
       O    14.17435   -3.56447   13.37174
      H1    14.95141   -2.99578   13.47682
       H    11.88751   -3.82073   10.53893
       O    12.76119   -3.54872   10.13202
      H1    13.37360   -3.41754   10.81769
       H    16.45594    5.56660   14.64157
       O    16.41039    6.44676   15.07586
      H1    16.31432    7.15058   14.41261
       H    18.51116   -6.68591   17.57854
       O    17.84333   -6.27780   18.10525
      H1    17.17321   -6.01636   17.48024
       H    19.04646    2.02134   16.21909
       O    18.61403    1.93536   15.37847
      H1    18.16961    2.80021   15.25675

