87
frame 8 | Written by MDAnalysis XYZWriter (release 2.4.3)
       H     8.47344    8.96217   11.31619
       O     8.24329    8.08619   11.03543
      H1     8.03018    8.20919   10.11597
       H     5.42105   12.88482   14.85885
       O     5.93550   12.43518   15.57636
      H1     6.00067   11.53080   15.19348
       H     3.52111   14.61644   13.67330
       O     3.72511   13.66759   13.55447
      H1     4.14131   13.51574   12.67665
       H     6.93028   17.17169    8.33099
       O     7.01491   16.22593    8.57915
      H1     6.59679   15.76045    7.85204
       H    10.93682    8.93176   11.18517
       O    11.33578    9.79039   11.42255
      H1    11.40414   10.27005   10.59772
       H    12.38284   11.54444    8.92760
       O    11.40271   11.58620    9.11806
      H1    11.27267   12.46730    9.41560
       H     7.35946   15.98477   13.91148
       O     8.02532   15.80798   14.55377
      H1     8.29574   14.85621   14.48445
       H    14.08659    9.50455   11.81854
       O    13.60033    9.30486   12.68476
      H1    12.70932    9.24645   12.33319
       H     3.74602   12.07974    6.95433
       O     2.84761   12.16990    7.36128
      H1     3.00308   11.93558    8.28378
       H     8.53100    7.02625   15.31527
       O     8.10676    6.87110   14.45778
      H1     7.67452    5.98863   14.40384
       H     4.78885    6.98724   13.53254
       O     5.11700    7.01290   12.63754
      H1     6.05002    7.26973   12.73464
       H     8.00556    7.59195    7.71103
       O     7.50928    8.04857    8.39740
      H1     7.26300    8.88952    8.03460
       H     9.54094   13.03486   15.27523
       O     8.72351   13.29476   14.88905
      H1     8.00819   12.91321   15.40779
       H     6.39931    6.42953    8.69345
       O     5.82350    5.62699    8.82726
      H1     5.11335    6.05234    9.35371
       H     5.57422   13.76869   10.61934
       O     5.30017   12.84268   10.84163
      H1     4.46711   12.74354   10.31845
       H    11.08122    6.76658   10.52178
       O    10.80316    7.55842   10.05120
      H1     9.83954    7.51458   10.11414
       H     6.33496   11.56732   10.55212
       O     6.94343   10.84643   10.57236
      H1     7.71301   11.22188   10.98935
       H     9.06618   12.48400   12.99143
       O     9.24230   12.00422   12.20891
      H1     9.92363   11.40996   12.35783
       H     5.47949   12.68087    5.72258
       O     5.43914   12.73069    6.69010
      H1     6.20428   12.09320    6.88204
       H    10.26640   11.44802    7.49811
       O     9.70277   11.24389    6.73680
      H1     9.99138   11.90095    6.02965
       H     7.98960   11.21303    7.50149
       O     7.16518   11.06770    8.01473
      H1     7.39769   11.31560    8.95932
       H     6.10645   15.93699    9.90728
       O     5.44598   15.62817   10.59329
      H1     4.59736   15.84621   10.31743
       H     2.46011    8.53473   12.16806
       O     2.90347    9.37616   11.99261
      H1     3.73133    9.21966   12.42660
       H    10.71686   14.72307   11.00611
       O    10.76742   13.77192   10.86296
      H1    10.03463   13.24718   11.23800
       H     5.70504    9.85386   13.59730
       O     5.31088   10.33745   12.84119
      H1     6.04849   10.53709   12.22710
       H    12.26452   13.37181   11.63208
       O    13.11940   13.06589   12.00502
      H1    12.84753   12.55902   12.79235
       H     2.67192   10.77773   13.14671
       O     2.30620   11.38337   13.78334
      H1     2.88895   12.17557   13.67293
       H     1.87368   11.65644    9.80690
       O     2.81060   11.58923    9.83586
      H1     3.12609   10.91756   10.43139
       H     6.90290    8.34968   14.75415
       O     6.42907    9.10748   15.09329
      H1     5.97566    8.73765   15.88462

