87
frame 8 | Written by MDAnalysis XYZWriter (release 2.4.3)
       H     5.29651    3.39756   11.10726
       O     4.44381    3.04003   11.49554
      H1     4.63191    2.92347   12.42860
       H     1.65441    3.35263    4.49419
       O     1.56126    3.87018    5.28422
      H1     2.29722    4.46643    5.27392
       H     7.43931    4.21364    3.85454
       O     7.31893    3.24225    3.90104
      H1     7.31965    2.94659    4.81076
       H     1.71169    3.44440    9.57125
       O     2.05492    4.17548   10.17468
      H1     2.74419    3.66348   10.63226
       H    -0.98970    5.68424    4.29221
       O    -0.32846    5.84929    4.96246
      H1     0.29168    5.08422    4.95093
       H     1.83860    5.04148    0.94072
       O     2.44980    4.46389    1.33354
      H1     2.25706    3.55831    0.96331
       H     3.24100    6.43664    6.69803
       O     3.52399    6.08191    5.86013
      H1     4.05522    5.27262    6.07400
       H     4.68601    0.02966    5.95435
       O     3.77123    0.43258    6.11346
      H1     3.92311    1.15399    6.74636
       H     5.66122    3.40594    5.72806
       O     5.04893    3.88018    6.29248
      H1     5.37426    4.16766    7.16141
       H     9.49221    7.73555    6.02043
       O     8.98043    6.92206    6.29860
      H1     9.39237    6.18572    5.82331
       H     1.67453    9.57995    5.60391
       O     2.49918    9.77465    6.08532
      H1     2.29348   10.58634    6.54995
       H     7.13067    0.70649    6.03814
       O     7.43733    1.60193    6.20848
      H1     8.37764    1.62669    6.41045
       H     7.89705    6.53134    4.23597
       O     7.26811    5.97016    3.69799
      H1     7.36026    6.26793    2.80567
       H     8.00556    7.59195    7.71103
       O     7.50928    8.04857    8.39740
      H1     7.26300    8.88952    8.03460
       H     6.30371    8.06838    1.01598
       O     5.50870    7.59292    0.67013
      H1     4.78306    7.82141    1.30814
       H     3.58090    8.70708    3.47976
       O     3.08109    8.72581    2.65271
      H1     2.66074    9.57532    2.74125
       H     6.39931    6.42953    8.69345
       O     5.82350    5.62699    8.82726
      H1     5.11335    6.05234    9.35371
       H    -1.55615    5.81146    8.07846
       O    -1.64678    6.51545    7.40366
      H1    -0.91392    6.32539    6.80957
       H     1.35548    8.30369    9.32882
       O     0.88616    8.84666    9.98748
      H1     1.63719    9.09194   10.61480
       H     6.70548   10.59112    4.29306
       O     6.96967    9.91095    4.93355
      H1     6.36177    9.21484    4.88330
       H    -0.72425    2.91741    7.80232
       O    -0.06916    2.49132    7.18762
      H1     0.34061    3.19091    6.72792
       H     0.97205    1.80961    8.41772
       O     1.25492    1.45796    9.27081
      H1     2.07523    1.05676    9.11953
       H     3.15424    7.53346    8.83157
       O     2.62814    7.66133    8.00514
      H1     2.72319    8.50063    7.56657
       H     1.39698    8.30047    3.61979
       O     0.55011    8.56686    3.99590
      H1     0.24611    7.71339    4.29551
       H     3.07275    5.89266   10.34113
       O     3.70096    6.61501   10.35422
      H1     3.97486    6.77267   11.26104
       H     0.53057    2.06691    2.68658
       O     0.74740    1.89652    3.56573
      H1     1.17081    1.03765    3.57941
       H     4.90946    1.81422    8.36906
       O     4.05203    2.14851    8.13656
      H1     4.34609    2.77540    7.39238
       H     4.55998    7.38089    5.14288
       O     5.34042    7.82529    4.81720
      H1     5.98861    7.07502    4.83060
       H     6.82242    4.51377    9.93565
       O     6.93368    3.88648   10.70237
      H1     6.84941    4.36050   11.54615

