87
frame 0 | Written by MDAnalysis XYZWriter (release 2.4.3)
       H     7.79161    0.21368   -0.46204
       O     7.58161   -0.56905    0.06593
      H1     8.41867   -0.81354    0.52556
       H     6.08049   -1.69219    2.84546
       O     5.96132   -1.98826    1.90086
      H1     6.51162   -1.40610    1.36121
       H    10.91585   -1.20110   -0.60262
       O    11.49413   -1.26772   -1.41753
      H1    11.98134   -2.14172   -1.35586
       H     7.24983    2.97319    5.05484
       O     7.69681    2.09869    5.03795
      H1     7.35932    1.76732    5.85310
       H    12.39707    3.07584   -0.76974
       O    12.31593    3.99909   -0.84046
      H1    13.18136    4.35651   -0.94144
       H    12.68022    4.55104    5.08973
       O    12.61289    3.94216    4.33368
      H1    11.64202    3.77620    4.30094
       H     9.39162   -0.08089    2.64324
       O     8.92305   -0.03553    3.46604
      H1     8.75847    0.92464    3.58941
       H     5.81976    4.09728    1.33448
       O     6.46016    3.50980    0.94655
      H1     6.76879    3.88896    0.09749
       H     8.80625   -4.29829   -0.36438
       O     8.28018   -3.88488   -1.00984
      H1     8.80148   -3.15378   -1.41735
       H    10.01885    0.41594    0.89765
       O    10.07012   -0.53591    0.98242
      H1    10.96122   -0.82864    1.29836
       H    11.18219    5.77887    2.01387
       O    11.02424    4.90931    1.65133
      H1    11.56694    4.85374    0.81694
       H     6.10861    2.37466    2.37039
       O     5.85884    1.65922    2.95078
      H1     6.34198    1.71806    3.76876
       H    14.42460   -3.60873    1.00691
       O    14.02068   -2.75701    0.97709
      H1    14.15820   -2.37288    0.16599
       H     9.37042    1.74444   -4.37831
       O     9.74424    0.80860   -4.13545
      H1    10.65346    1.09574   -3.99796
       H    13.60630    1.27691   -1.40630
       O    12.61669    1.37148   -1.31474
      H1    12.28822    0.52822   -1.16762
       H    12.72443   -2.23363    1.95500
       O    11.99219   -1.85592    2.46287
      H1    11.87245   -2.43032    3.21009
       H    11.37176    1.56797    1.83955
       O    10.88502    2.13978    1.21797
      H1    11.14216    3.01130    1.50349
       H     8.53933   -3.60615    2.76455
       O     9.06128   -3.45610    3.58367
      H1     9.69729   -4.17551    3.69496
       H    12.24325   -0.20749    2.94649
       O    12.58428    0.69452    3.13273
      H1    12.62169    0.63545    4.08260
       H    12.03115    2.56040   -4.30131
       O    12.38010    1.72357   -3.97014
      H1    12.41851    1.82805   -2.95601
       H     6.96254    3.28759   -2.86326
       O     7.16604    3.36123   -1.95148
      H1     7.88215    2.73528   -1.82960
       H     7.56157   -1.21366   -2.62912
       O     8.19271   -1.49656   -3.31557
      H1     8.70780   -0.65598   -3.53091
       H    15.17665   -1.47016    2.70563
       O    15.20778   -0.53134    2.76943
      H1    14.33252   -0.14270    2.83416
       H     7.30156   -2.18814    4.65283
       O     6.80882   -1.34447    4.57165
      H1     7.41410   -0.74216    4.09635
       H    10.42918   -0.58317    6.10070
       O    10.59758    0.11026    5.51212
      H1    10.01999   -0.08516    4.73172
       H     5.51982    2.24088   -0.31997
       O     5.18335    1.34789   -0.48742
      H1     5.45317    0.83053    0.29228
       H     7.91977    3.73603    1.98377
       O     8.48684    4.21894    2.64208
      H1     9.37920    4.32943    2.28340
       H    10.63892    2.08594    5.67696
       O    10.24231    2.94381    5.64838
      H1     9.31482    2.78248    5.40447
       H     9.47082    1.27224   -1.90757
       O     9.13545    1.43605   -0.99429
      H1     9.79405    1.86039   -0.42881

