87
frame 8 | Written by MDAnalysis XYZWriter (release 2.4.3)
       H     7.74155   -8.36354  -12.41110
       O     7.31310   -9.17662  -12.09085
      H1     7.84362   -9.91408  -12.35676
       H     7.13638   -9.09886  -10.33655
       O     6.73387   -9.05260   -9.42854
      H1     7.40550   -8.64341   -8.91677
       H     5.06523  -16.70885  -16.72670
       O     5.21243  -15.74428  -16.84892
      H1     6.09804  -15.58780  -16.59079
       H     5.78349  -13.58951  -12.89172
       O     4.85259  -13.43039  -13.04591
      H1     4.80504  -12.51588  -13.37686
       H     3.82957  -11.26719  -15.27130
       O     3.68274  -11.42419  -16.19645
      H1     2.77468  -11.79759  -16.25156
       H     2.88362   -9.86229   -9.33943
       O     2.65762   -9.00623   -9.71868
      H1     3.37729   -8.45689   -9.34885
       H     5.06089  -13.89042   -8.70070
       O     5.41379  -13.73635   -7.78783
      H1     4.67028  -13.70753   -7.16806
       H     2.74736   -9.38766  -16.01359
       O     3.03896   -8.47051  -15.99370
      H1     3.97061   -8.47927  -15.63541
       H     0.75393  -15.71884  -15.57271
       O     1.22812  -15.26364  -16.27323
      H1     2.06958  -14.99629  -15.91313
       H     1.67921  -18.12556  -14.70730
       O     1.74025  -17.45465  -13.98414
      H1     2.44652  -16.83122  -14.14983
       H     3.03038  -11.67409   -7.60954
       O     2.86997  -11.53002   -8.56339
      H1     1.99889  -11.85396   -8.71939
       H     0.84257  -13.61298  -16.41030
       O     0.82123  -12.67722  -16.29719
      H1    -0.03742  -12.31492  -16.55874
       H     0.29260  -16.43515  -13.55025
       O    -0.37193  -15.76257  -13.71864
      H1     0.08883  -14.90395  -13.51558
       H     0.74643  -11.56053  -10.44041
       O     0.35173  -11.99209   -9.72287
      H1    -0.13843  -11.28231   -9.28727
       H     4.05810  -15.11752  -15.73321
       O     3.57975  -15.18259  -14.85349
      H1     4.09212  -14.59988  -14.22947
       H     5.81699   -8.59911  -14.05636
       O     5.98427   -8.22492  -14.90084
      H1     6.06159   -7.28234  -14.84047
       H     4.50936  -12.62653  -18.68684
       O     5.31074  -12.78688  -18.13150
      H1     4.97125  -12.36923  -17.33725
       H     5.34557  -16.64908   -9.90454
       O     6.02080  -16.06417  -10.27952
      H1     5.72272  -15.17903  -10.25862
       H     4.54452  -10.23223  -12.88239
       O     4.13169  -10.84265  -13.54217
      H1     3.18007  -10.95107  -13.22239
       H     6.16850  -12.14427   -8.07972
       O     6.96518  -11.47182   -8.00011
      H1     6.76860  -10.82895   -8.70142
       H     3.65282   -8.49417  -11.48736
       O     4.39079   -8.53526  -12.18601
      H1     5.15198   -8.08958  -11.74024
       H     2.49015  -14.35466   -9.85248
       O     1.84668  -14.95645   -9.45070
      H1     0.98983  -14.81553   -9.90987
       H     4.07446  -12.63413   -9.80422
       O     4.23409  -13.43083  -10.30473
      H1     4.25450  -13.32130  -11.28907
       H     7.66465  -14.07259  -14.01993
       O     7.82185  -13.66691  -13.13662
      H1     8.05913  -14.36371  -12.49138
       H     6.52359  -17.57236  -12.75589
       O     6.51813  -17.05695  -13.56318
      H1     5.56521  -17.06228  -13.73827
       H     0.31941  -12.98401  -14.51101
       O     0.31146  -13.15963  -13.56172
      H1    -0.60583  -12.84092  -13.37521
       H    10.30285  -11.49484  -12.47155
       O     9.50578  -11.33052  -12.99953
      H1     9.06199  -12.20047  -13.10047
       H     0.87416  -11.63021  -12.85964
       O     1.17390  -10.84430  -12.30576
      H1     0.67017  -10.04950  -12.61836
       H     8.52586  -15.45075  -15.55460
       O     7.62672  -15.22473  -15.43127
      H1     7.31661  -15.85241  -14.76583

