87
frame 8 | Written by MDAnalysis XYZWriter (release 2.4.3)
       H   -17.94932   11.77119   -8.41119
       O   -18.14007   10.78555   -8.44867
      H1   -19.08825   10.81643   -8.56525
       H   -17.05143   11.46253   -4.85585
       O   -17.69598   12.04180   -4.46653
      H1   -18.49796   11.56581   -4.52109
       H   -14.67282   12.75938   -9.87211
       O   -14.49421   13.15084   -8.94431
      H1   -15.38799   13.49699   -8.72127
       H   -13.32453    9.37323   -0.32638
       O   -12.66362    9.15717   -1.01469
      H1   -12.51239    8.25065   -0.78491
       H   -15.00336    8.36582   -3.45534
       O   -14.04960    8.15452   -3.36714
      H1   -13.73143    8.53914   -2.52449
       H   -13.75644   15.42097   -2.41017
       O   -14.55520   14.99947   -2.78859
      H1   -15.10500   15.75847   -2.94128
       H   -13.84017   14.37556   -4.63343
       O   -14.15163   14.01934   -5.46256
      H1   -13.46473   14.15789   -6.11306
       H   -11.95331   10.85838   -6.30240
       O   -11.61672   10.45189   -7.12493
      H1   -12.34200   10.48105   -7.70103
       H   -14.24755   13.11214   -2.43133
       O   -13.92535   12.35011   -1.95877
      H1   -14.63957   11.72114   -2.03067
       H   -19.00986    9.59847   -5.51986
       O   -19.56231   10.10872   -4.95113
      H1   -19.94362    9.41859   -4.40363
       H   -15.51907    7.36843   -8.30654
       O   -15.83412    8.19683   -8.60395
      H1   -16.54791    8.02838   -9.26643
       H   -13.51013    6.91655   -7.18555
       O   -13.95699    6.36860   -7.86239
      H1   -13.21309    6.04995   -8.44532
       H   -16.71691    9.56697   -4.00467
       O   -16.68026    8.73502   -3.53038
      H1   -17.38761    8.23636   -4.04618
       H   -17.68310   14.32058   -9.41985
       O   -17.25719   13.79160   -8.76377
      H1   -17.44561   14.12626   -7.80003
       H   -18.64865    8.27699   -7.23930
       O   -17.91763    8.33725   -6.57922
      H1   -17.16300    8.68791   -7.08905
       H   -11.79800   11.46467   -3.84273
       O   -12.14025   11.66347   -4.71770
      H1   -13.09996   11.60069   -4.67294
       H   -18.05311   14.10438   -1.84894
       O   -18.18261   13.17025   -2.00193
      H1   -18.12683   13.00916   -3.03414
       H   -12.75244   13.71252   -8.25250
       O   -12.24093   14.04458   -7.48360
      H1   -11.90021   14.91561   -7.71313
       H    -9.98186   10.26300   -6.22428
       O    -9.18713    9.86502   -5.79336
      H1    -9.33644    8.95173   -5.64963
       H   -11.00130   12.06091   -0.73005
       O   -11.74829   12.31471   -0.21552
      H1   -12.54052   12.47717   -0.77057
       H   -14.82747   11.05757   -6.22002
       O   -14.89839   11.29961   -5.30015
      H1   -14.63846   12.21318   -5.33784
       H   -17.40914   10.31527   -9.97090
       O   -16.81848   10.52406  -10.74738
      H1   -17.43549   10.15664  -11.45341
       H   -18.74055    8.70923   -0.59870
       O   -17.81246    8.70369   -0.82654
      H1   -17.62931    8.43693   -1.72029
       H    -9.86631   10.11087   -2.64011
       O   -10.54637   10.72804   -2.28059
      H1   -11.13158   10.08145   -1.84229
       H   -17.00278   10.56956   -1.58355
       O   -16.33710   11.25822   -1.37900
      H1   -16.80635   12.09690   -1.48503
       H   -11.38150   13.46909   -4.14988
       O   -10.85629   13.83089   -3.44831
      H1    -9.97221   13.44768   -3.57214
       H   -12.30858    8.77788   -6.57137
       O   -12.57456    8.08789   -6.00221
      H1   -13.05741    8.38703   -5.20907
       H   -14.95352   10.09034   -8.24814
       O   -14.38929   10.73019   -7.81796
      H1   -14.43045   11.58832   -8.26019
       H   -16.05354   14.41329   -5.93988
       O   -16.98721   14.40837   -6.00494
      H1   -17.25409   13.57840   -5.47917

