87
frame 8 | Written by MDAnalysis XYZWriter (release 2.4.3)
       H   -16.06432    5.03578    7.12766
       O   -15.75236    4.20239    6.78596
      H1   -14.77446    4.22387    6.90369
       H   -16.78767    1.18649    5.61754
       O   -16.32394    0.68530    4.89018
      H1   -16.72648    1.02349    4.09819
       H   -12.04258    1.83727   12.56111
       O   -12.07970    0.90467   12.85576
      H1   -11.58834    0.92294   13.68355
       H   -16.73804    2.82713    7.23732
       O   -17.11041    1.90217    7.27332
      H1   -18.00473    2.00015    7.64927
       H   -13.05699    9.60741    7.02483
       O   -12.32158    9.37062    7.59927
      H1   -12.40688    8.48397    7.86768
       H   -11.86390    6.29589    8.85633
       O   -12.12189    5.87860    8.02858
      H1   -11.33622    6.03299    7.47947
       H   -14.35639    2.40856   10.34842
       O   -13.57532    2.39898    9.85392
      H1   -13.34560    1.49563    9.72479
       H    -9.96110    3.75219    6.59096
       O    -9.28661    3.13308    6.76290
      H1    -8.71639    3.62287    7.34880
       H   -16.01053    4.14989   12.12300
       O   -15.95426    4.50057   13.02660
      H1   -15.63882    5.37931   13.04736
       H   -16.25385    5.42557    3.93513
       O   -16.75032    4.67095    4.20150
      H1   -16.31915    4.31186    5.01303
       H   -15.73051    1.82196   11.77829
       O   -15.95788    2.46930   11.13672
      H1   -16.37752    1.99052   10.32263
       H   -11.88168   -0.95872    4.15626
       O   -10.89550   -0.98264    4.31063
      H1   -10.79954   -0.31204    5.03864
       H    -8.79355    3.25582   10.04038
       O    -9.15389    2.52211   10.60297
      H1    -9.98445    2.93753   10.93648
       H   -16.75429    0.68642    8.58624
       O   -16.94567    0.34609    9.49818
      H1   -16.28053   -0.36955    9.73380
       H   -13.62954   -1.69481    4.53741
       O   -13.53942   -0.73480    4.58489
      H1   -14.36266   -0.28557    4.35175
       H   -12.06892   -0.05409   11.42453
       O   -12.35649   -0.49194   10.57241
      H1   -13.26868   -0.63055   10.63412
       H   -15.17421   -0.11116   12.80916
       O   -14.83132    0.74010   13.09012
      H1   -13.87645    0.73307   12.91435
       H   -10.60950    7.55348    5.57460
       O   -10.75443    6.51983    5.69152
      H1   -11.69776    6.25571    5.58303
       H    -7.98467    5.78209    9.03242
       O    -8.14399    4.93277    8.59181
      H1    -7.22140    4.82438    8.21889
       H    -9.95808    1.53531    6.71999
       O   -10.22439    0.65875    6.38552
      H1   -11.11533    0.38541    6.73826
       H   -11.80721   -1.05445    7.27630
       O   -12.55632   -0.49860    7.35867
      H1   -12.96014   -0.57911    6.45312
       H   -14.69237   -1.66084    9.07022
       O   -14.82655   -1.23555    9.92464
      H1   -15.35293   -1.90189   10.43991
       H   -12.43822    3.43698   11.10150
       O   -11.65042    3.60910   11.63739
      H1   -12.02792    3.84999   12.47019
       H   -17.01850    7.46876    8.20972
       O   -17.18426    6.54382    8.03065
      H1   -18.17798    6.48853    7.83942
       H   -12.97168    5.18644    3.86488
       O   -13.08307    5.42129    4.81691
      H1   -13.23152    4.58315    5.20620
       H   -14.40568    6.75287    4.84960
       O   -15.19348    7.31563    4.76257
      H1   -15.04451    7.77469    3.93399
       H   -10.15886    4.15106    3.16062
       O   -10.77251    3.51530    2.74537
      H1   -10.41881    2.64492    2.82792
       H   -10.51592   -0.09570    9.75857
       O    -9.57597    0.06062    9.52642
      H1    -9.43817    1.01583    9.83203
       H   -12.78010    4.39424    7.54424
       O   -13.14373    3.60937    7.09480
      H1   -13.08880    2.92167    7.81090

