87
frame 1 | Written by MDAnalysis XYZWriter (release 2.4.3)
       H   -18.94232   -0.79436   -4.79771
       O   -18.78243    0.06658   -5.25009
      H1   -18.65173    0.59819   -4.40296
       H   -14.37732    0.98409   -6.09171
       O   -13.56121    0.46916   -5.98350
      H1   -13.06305    0.64570   -6.74132
       H   -17.33692   -5.55182   -1.55212
       O   -17.48006   -6.39395   -1.90364
      H1   -16.92130   -6.28777   -2.63510
       H   -17.71128   -5.37384   -6.17467
       O   -18.70520   -5.52035   -6.02954
      H1   -18.98538   -5.27106   -5.13472
       H   -19.03228   -1.73552   -0.64046
       O   -18.79613   -2.29239    0.14210
      H1   -18.44197   -1.66407    0.84199
       H   -14.44210   -6.07105   -3.31563
       O   -15.36230   -5.97219   -3.72554
      H1   -15.30338   -6.49189   -4.55809
       H   -15.67514   -3.96137  -10.96244
       O   -16.18834   -4.66763  -10.53126
      H1   -16.78512   -4.14254   -9.98657
       H   -14.55841   -2.66007   -5.60380
       O   -14.78311   -2.74528   -6.52910
      H1   -14.57758   -1.89408   -6.98735
       H   -15.70349   -3.99343   -3.76430
       O   -16.14378   -3.15511   -3.60770
      H1   -15.47954   -2.48020   -3.68190
       H   -15.51614   -5.61628   -7.26881
       O   -16.14227   -5.15790   -6.70083
      H1   -15.87360   -4.20557   -6.66721
       H   -14.93802   -0.00554   -0.12774
       O   -15.35168    0.51563    0.50603
      H1   -14.87549    0.07673    1.23171
       H   -19.29746   -4.96548   -1.07996
       O   -19.41379   -4.87743   -0.14323
      H1   -19.23924   -3.90980    0.06837
       H   -19.41128   -2.27234   -7.19655
       O   -18.47132   -2.14227   -7.36385
      H1   -18.31008   -1.19791   -7.34813
       H   -17.99685   -2.63574   -5.75378
       O   -18.37230   -2.65530   -4.82377
      H1   -17.53445   -2.63375   -4.34164
       H   -16.25964    2.48867   -7.29483
       O   -15.27879    2.40277   -7.10931
      H1   -15.00789    3.34867   -7.14828
       H   -13.64914   -0.90586   -3.28814
       O   -13.91642   -1.42263   -4.07445
      H1   -13.78086   -0.86525   -4.86170
       H   -19.47576   -1.72911  -10.57237
       O   -18.75402   -2.31724  -10.27376
      H1   -18.70010   -2.30747   -9.28869
       H   -16.12906   -8.00193   -5.89860
       O   -15.16348   -7.98481   -5.84278
      H1   -14.99802   -8.12336   -6.80581
       H   -18.13218    0.43014   -6.70657
       O   -17.68455    0.40569   -7.64244
      H1   -18.26221    0.93703   -8.19253
       H   -12.43812   -4.43883   -4.79950
       O   -12.16672   -3.99271   -3.98463
      H1   -12.88354   -3.34777   -3.78444
       H   -16.44894   -2.58475   -2.00235
       O   -16.30123   -2.25165   -1.10663
      H1   -17.19403   -2.06903   -0.72733
       H   -12.96208   -6.14279   -1.85084
       O   -13.23099   -5.22396   -1.98097
      H1   -12.80684   -4.91544   -2.77022
       H   -18.25914   -8.43150   -6.22560
       O   -17.68477   -7.96139   -6.80590
      H1   -17.92888   -7.02219   -6.73574
       H   -17.48003    4.17694   -5.76492
       O   -17.87003    3.37392   -6.14892
      H1   -18.76278    3.62775   -6.36228
       H   -13.78705    2.68692   -3.81469
       O   -14.73787    2.76764   -3.73317
      H1   -15.00073    1.84393   -3.88594
       H   -17.53905    2.83956   -0.70252
       O   -17.84810    1.98162   -0.41719
      H1   -17.07319    1.38829   -0.25448
       H   -18.23536    2.26557   -2.51223
       O   -18.70754    2.27870   -3.34588
      H1   -18.31846    2.95753   -3.91914
       H   -12.55089   -4.17410   -6.92179
       O   -12.58683   -5.07905   -6.60099
      H1   -11.70289   -5.43813   -6.90485
       H   -13.98878   -4.32846   -0.53890
       O   -14.27267   -3.73222    0.17320
      H1   -15.11798   -3.27576   -0.08021

