87
frame 9 | Written by MDAnalysis XYZWriter (release 2.4.3)
       H    10.46757   -2.71265   -2.72073
       O    11.21645   -2.43023   -3.21053
      H1    11.98416   -2.91619   -2.74685
       H    14.91848   -7.42172    4.38112
       O    14.38142   -6.63034    4.19283
      H1    14.64885   -6.52194    3.22564
       H    13.49582  -10.00461    0.17307
       O    13.06658   -9.73669   -0.64734
      H1    12.36392  -10.35326   -0.83545
       H    17.71157   -9.21761   -0.03417
       O    17.35597   -8.48540    0.51884
      H1    16.56406   -8.86504    0.90968
       H    19.25919   -4.53640    0.30657
       O    18.55568   -5.20108    0.56222
      H1    18.57420   -5.22083    1.50222
       H    18.00480   -5.42776   -3.62861
       O    18.71714   -6.08910   -3.81958
      H1    19.17183   -6.21123   -3.01720
       H    13.98749   -4.32550   -2.85953
       O    13.55869   -3.70963   -2.26856
      H1    13.30416   -4.33953   -1.56387
       H    15.85354  -10.78903    1.36561
       O    15.31753   -9.91573    1.28751
      H1    14.92255   -9.70706    2.15199
       H    17.27624   -8.18801    4.22301
       O    16.81330   -9.05544    4.39753
      H1    16.67075   -8.94228    5.35632
       H    12.19589   -5.88842   -0.40874
       O    12.58611   -5.04576   -0.14876
      H1    13.40993   -5.19216    0.28629
       H    12.38422   -4.54809    3.52016
       O    12.66832   -3.80654    4.10261
      H1    13.60333   -3.98744    4.15328
       H    12.14889   -1.76236    1.29757
       O    11.48703   -2.26125    0.80975
      H1    11.33466   -3.08407    1.28618
       H    14.09106   -8.65232   -1.79206
       O    14.64239   -8.38484   -2.54355
      H1    15.27650   -7.75178   -2.30562
       H    15.26064   -3.02783    5.03136
       O    15.42355   -3.96245    5.04486
      H1    16.32405   -4.05426    5.41432
       H    12.18611   -8.07490   -0.95260
       O    11.53133   -7.35473   -1.10892
      H1    11.53485   -7.15618   -2.03526
       H    16.81726   -3.36493    1.23733
       O    16.11063   -3.06626    0.68083
      H1    16.48144   -3.10947   -0.19555
       H    12.01187   -9.87502   -3.43003
       O    12.48179   -9.29407   -4.00574
      H1    13.30778   -9.11257   -3.48574
       H    18.22728   -3.75618    3.45775
       O    17.42144   -4.29484    3.20696
      H1    16.56115   -3.99941    3.61117
       H    16.63877   -3.84184   -2.89998
       O    16.75217   -4.22467   -3.73227
      H1    15.95574   -4.73564   -3.97479
       H    11.59000   -4.90504    1.43015
       O    11.04450   -4.84713    2.20791
      H1    10.56906   -5.69276    2.35072
       H    11.42197   -7.15547    5.73196
       O    11.61355   -7.37107    4.81369
      H1    12.50582   -7.14492    4.56964
       H    18.15246   -2.66732   -2.12071
       O    17.30361   -2.41331   -1.80302
      H1    17.12121   -1.46011   -1.80640
       H    15.43708   -5.87682    0.27695
       O    15.12578   -5.61984    1.16730
      H1    15.64452   -4.83679    1.35734
       H    15.88472   -0.89296    0.60128
       O    16.15285   -0.01104    0.43679
      H1    15.83922    0.45821    1.20196
       H    18.41563   -7.24072    2.81832
       O    18.24927   -6.83230    3.67676
      H1    17.84093   -6.00943    3.51007
       H    14.34360   -6.58468   -3.43648
       O    14.27151   -5.80952   -3.98113
      H1    13.32135   -5.61694   -4.12270
       H    10.52428   -9.98120    1.74011
       O    11.34202   -9.49731    1.88379
      H1    11.58221   -9.90078    2.75079
       H    17.37354   -5.94561   -1.20596
       O    16.55991   -6.39271   -1.00540
      H1    16.83901   -7.19694   -0.43911
       H    17.74557  -10.38987   -2.01282
       O    18.33262  -10.52152   -1.26454
      H1    18.57956  -11.46925   -1.16587

