87
frame 9 | Written by MDAnalysis XYZWriter (release 2.4.3)
       H   -17.76999    1.37099   10.61577
       O   -18.22789    1.06381   11.44796
      H1   -18.24085    1.80203   12.11405
       H   -16.73767    6.34005    9.68757
       O   -16.43092    6.60075   10.52033
      H1   -16.98065    7.34626   10.75344
       H   -16.22439    4.67125   18.31082
       O   -15.35091    5.13305   18.21881
      H1   -15.27144    6.01114   18.56242
       H   -10.38409    6.78617   12.81087
       O   -10.67263    7.05388   13.68655
      H1   -11.35445    7.68288   13.62514
       H   -13.96674   11.60415   12.08404
       O   -14.50112   10.89677   12.45547
      H1   -15.39844   11.07355   12.08614
       H   -11.66572    7.35533    8.55038
       O   -11.38485    6.52437    8.09062
      H1   -11.43112    6.67652    7.12123
       H   -12.58645    4.17829   14.62425
       O   -11.81660    4.42959   14.11817
      H1   -11.76368    5.36349   14.34384
       H   -14.75431    7.91270   10.05737
       O   -14.21299    8.38547   10.69866
      H1   -14.80798    8.97023   11.16715
       H   -19.58646    6.13750   16.20746
       O   -18.75955    5.72134   15.93249
      H1   -19.03839    5.41483   15.07889
       H   -14.97152    3.25392   12.50847
       O   -15.40621    3.64934   13.23934
      H1   -15.45954    4.57052   12.96065
       H   -18.42305    3.09174   14.32438
       O   -18.21005    3.39651   13.45117
      H1   -17.25472    3.53428   13.58420
       H   -17.25596    6.09245   15.54902
       O   -16.26950    6.19833   15.38274
      H1   -16.02007    6.66173   14.56075
       H   -14.85490    1.34337   11.44352
       O   -14.59710    2.10540   10.96575
      H1   -15.20883    2.05798   10.20889
       H   -15.93948    7.38789   16.62564
       O   -15.66036    8.17034   17.18738
      H1   -15.40504    8.81184   16.54639
       H   -13.88787    8.90540   14.67692
       O   -13.15796    8.36593   14.32061
      H1   -13.03299    7.71627   15.05094
       H   -16.85605   11.34437   14.44286
       O   -17.70992   11.66679   14.76014
      H1   -17.63457   11.89009   15.68950
       H   -14.92262   11.16935   15.81281
       O   -15.10520   10.41091   15.19258
      H1   -14.96177   10.85013   14.32521
       H    -9.26263    4.84042   12.67016
       O    -9.88266    5.12762   11.95758
      H1   -10.33842    4.36579   11.64457
       H   -16.69794   12.23103   11.07200
       O   -16.90649   11.67367   11.81174
      H1   -17.67799   12.10439   12.16283
       H   -13.14395    5.82611   15.91162
       O   -12.58502    6.51690   16.27873
      H1   -11.84568    6.06533   16.73747
       H   -15.60445    6.50813   12.05700
       O   -15.11998    6.42182   12.91576
      H1   -14.53117    7.16829   13.03930
       H   -12.22032    3.36255   11.24859
       O   -11.46325    2.99688   11.68894
      H1   -11.51917    3.24472   12.61094
       H   -19.39426    8.59438   15.37014
       O   -19.04819    9.16951   14.61889
      H1   -18.56171    9.93693   15.03216
       H   -18.88375    7.13603   12.63710
       O   -18.38321    7.85823   12.33111
      H1   -18.48084    8.42179   13.15266
       H   -17.26924    6.75268    7.90035
       O   -17.39532    5.87065    8.25163
      H1   -18.39576    5.65865    8.16674
       H   -12.34390    8.28791   10.18971
       O   -11.62770    8.71455    9.64834
      H1   -10.84737    8.74247   10.21763
       H   -14.76435    4.52833   16.42421
       O   -14.30486    3.96841   15.79459
      H1   -15.02214    4.01436   15.08953
       H   -14.72785    2.28572   16.87785
       O   -14.92511    1.37601   17.19934
      H1   -14.06117    1.27773   17.68851
       H   -18.95419    9.67230    9.60749
       O   -19.62416    9.30452   10.26448
      H1   -19.13808    8.89857   10.99492

