87
frame 9 | Written by MDAnalysis XYZWriter (release 2.4.3)
       H     3.89195   14.52426   14.46018
       O     4.41494   13.75413   14.18840
      H1     4.24380   13.74276   13.25678
       H     7.26149   16.91607    7.66306
       O     7.37325   15.94319    7.73869
      H1     6.78244   15.62291    7.04589
       H    -3.39677   15.66821    8.23087
       O    -2.85911   15.49371    8.99266
      H1    -2.33503   14.61610    8.79126
       H     1.98944   18.28748    4.47086
       O     1.62105   18.83132    5.17679
      H1     2.16032   19.63157    5.19443
       H     4.84117   17.21988   11.98354
       O     4.37833   17.84564   11.36034
      H1     3.90588   17.25088   10.79005
       H     6.85520   16.80309   12.81085
       O     6.04123   16.28372   12.76532
      H1     6.16812   15.77290   11.94903
       H     2.19026   15.84556    6.91126
       O     2.90946   16.46110    6.70022
      H1     2.53674   17.22655    6.31372
       H    -1.31619   18.07352    4.99207
       O    -0.71222   17.64119    5.63379
      H1     0.00797   18.28986    5.41256
       H     4.04307   12.45960    7.43642
       O     3.10599   12.33301    7.68227
      H1     3.16870   11.88682    8.55914
       H     0.86834   14.33234    6.29430
       O     0.96730   14.30207    7.27652
      H1     1.67037   13.64604    7.37802
       H     7.01724   19.26266    8.81485
       O     7.26492   18.83983    7.98978
      H1     6.93464   19.37719    7.23142
       H     4.95809   13.71398   10.80158
       O     4.54076   13.11330   11.40263
      H1     3.96096   12.57823   10.84815
       H    -2.23544   16.20808   11.62944
       O    -1.49636   15.81401   11.23641
      H1    -1.82502   15.63042   10.37140
       H     0.50286   18.82821   13.42887
       O     0.15589   18.59534   14.31038
      H1     0.18593   17.61629   14.34464
       H    -2.15142   13.66370    7.13527
       O    -1.59569   13.50171    7.90727
      H1    -0.67551   13.68298    7.72294
       H    -0.40404   15.12782   14.97065
       O    -0.58135   15.84145   14.29449
      H1    -0.72582   15.28077   13.48937
       H     0.45627   15.45072   11.72982
       O     1.34208   15.19972   11.98095
      H1     1.27439   14.28938   12.32266
       H     5.92400   17.20165    3.30373
       O     6.38022   17.34705    4.18760
      H1     5.97706   16.60917    4.62470
       H     2.50145   15.39390   10.27876
       O     3.25352   15.86502    9.83254
      H1     2.94805   16.16418    8.92366
       H     5.85489   11.95967   11.44015
       O     6.48340   11.28688   11.58920
      H1     7.27682   11.78246   11.76961
       H     1.51920   12.38405   13.48285
       O     0.69063   12.89125   13.26730
      H1     0.22979   12.38358   12.60275
       H     5.44998   12.68442    5.11906
       O     5.43929   12.88863    6.06555
      H1     5.99091   12.40788    6.62309
       H     1.95316   16.62206    2.45353
       O     2.43649   16.57566    3.33384
      H1     1.91277   16.08063    3.95184
       H     6.62923   15.39977    9.53109
       O     5.97947   15.22870   10.23304
      H1     5.21152   15.52888    9.84542
       H     5.43725   14.54743    5.87511
       O     5.37226   15.51404    5.93389
      H1     4.38649   15.74117    6.08063
       H     0.50180   12.50473    4.20322
       O     0.78199   13.41351    4.26713
      H1     0.14173   13.94449    3.78115
       H    -1.41895   17.83405    7.23914
       O    -1.83634   18.09544    8.08392
      H1    -2.24545   17.31787    8.48784
       H     2.81830   17.26111   13.91277
       O     2.65216   16.32160   14.12810
      H1     2.15117   15.91356   13.35303
       H     1.94031   11.41197   10.08726
       O     2.88426   11.38915   10.24072
      H1     3.02346   10.41849   10.38186

