87
frame 9 | Written by MDAnalysis XYZWriter (release 2.4.3)
       H     1.03343   14.12891   -2.22699
       O     0.58022   13.35439   -2.65029
      H1    -0.32356   13.62965   -2.74917
       H     3.10730    9.03217   -3.48575
       O     3.28684    8.81144   -4.45838
      H1     3.89674    8.05916   -4.37012
       H    -0.97680    8.45914   -5.65054
       O    -1.30642    8.48624   -6.57142
      H1    -2.01626    9.09601   -6.72736
       H    -3.25960    7.56319   -0.82831
       O    -3.94052    6.95587   -0.49649
      H1    -4.11295    6.39251   -1.31271
       H    -4.50885    7.42376   -5.04461
       O    -4.41269    8.38486   -5.29050
      H1    -5.22154    8.49373   -5.77729
       H    -4.01922    9.37169   -3.95871
       O    -3.67608    9.84095   -3.16261
      H1    -4.16975    9.45866   -2.47597
       H    -0.25110    6.18815   -0.89345
       O     0.12127    5.47827   -0.31420
      H1    -0.55723    4.79541   -0.19731
       H     0.86103    6.50613   -7.53771
       O     0.82245    7.45356   -7.81132
      H1     0.17994    7.81682   -7.18498
       H     2.24849    9.84322   -6.01272
       O     1.77223   10.60829   -6.38346
      H1     1.02253   10.31862   -6.91699
       H    -0.66265   10.59734   -2.49349
       O    -0.91895   10.33576   -3.43589
      H1    -1.89503   10.05872   -3.40737
       H     3.47545    8.45159   -0.99787
       O     2.75694    8.31876   -1.60676
      H1     2.68542    7.35711   -1.54220
       H    -4.05629   11.63035   -3.38792
       O    -4.53441   12.44924   -3.60458
      H1    -4.67932   12.47084   -4.52261
       H     0.67242   12.36989    0.28936
       O     1.51408   11.96311    0.15235
      H1     1.73535   11.96546   -0.81021
       H     4.70312   11.84669   -4.65088
       O     5.17305   11.03043   -4.73966
      H1     4.41770   10.38101   -4.62744
       H    -0.90442   11.52379   -8.19955
       O    -0.37254   10.73835   -8.31757
      H1     0.49983   10.98772   -8.59900
       H    -4.12392    5.71015   -5.99614
       O    -3.95904    5.55242   -5.04856
      H1    -3.01150    5.32862   -4.97363
       H    -0.49743    7.84820   -8.91413
       O    -1.36063    8.19039   -9.31878
      H1    -1.81705    8.73479   -8.64261
       H    -4.41558   10.53758   -7.50815
       O    -3.74774    9.80035   -7.33088
      H1    -4.08216    9.18038   -6.61093
       H    -0.69199    9.67846    0.36820
       O    -0.28054   10.02509   -0.45562
      H1     0.41625   10.65483   -0.18384
       H     1.39053    6.24282   -3.11448
       O     1.71414    5.65887   -2.44277
      H1     1.04018    5.57270   -1.79098
       H    -0.46711    8.27162   -1.57021
       O    -0.80183    7.40264   -1.84480
      H1    -0.36804    7.27084   -2.70567
       H     1.00464   13.24307   -4.21796
       O     1.32442   13.33254   -5.18009
      H1     1.39163   12.48581   -5.62664
       H     3.65827   11.28401   -1.10962
       O     3.11292   11.52429   -1.89750
      H1     3.58557   12.26206   -2.27592
       H    -2.89500   13.03267   -3.72051
       O    -1.93127   13.12199   -3.92435
      H1    -1.58518   12.23486   -4.00348
       H    -1.92695    5.85320   -7.76853
       O    -1.74520    4.96666   -8.11700
      H1    -1.88931    4.96698   -9.06642
       H     2.44036   10.53058   -7.98086
       O     2.65333   10.58872   -8.92820
      H1     2.49132   11.49750   -9.18242
       H     3.88363    5.85027   -7.77252
       O     3.92262    6.75447   -7.35442
      H1     3.00010    7.03145   -7.48585
       H    -1.81048    3.99025   -4.24324
       O    -1.41323    4.79470   -3.82190
      H1    -1.48339    4.52640   -2.88377
       H     1.38816    8.47768   -4.24193
       O     0.43976    8.36116   -4.45132
      H1     0.03933    9.14149   -4.04977

