87
frame 9 | Written by MDAnalysis XYZWriter (release 2.4.3)
       H     5.55101    2.38803   11.31386
       O     5.09419    1.65798   11.71348
      H1     5.35219    1.76002   12.65638
       H     1.85486    4.23120   10.17252
       O     2.28226    4.93005   10.69413
      H1     1.57364    5.15311   11.35747
       H     4.61671   -2.28568   13.03092
       O     5.25466   -2.65980   12.41810
      H1     5.02507   -2.41370   11.52827
       H     7.76283   -3.94240   12.88760
       O     8.12517   -4.07941   12.00345
      H1     7.48117   -4.57578   11.47955
       H     3.97176   -3.87900    8.83615
       O     4.58537   -3.49241    9.49661
      H1     5.27518   -4.16746    9.68035
       H     2.69168   -2.97736    7.39292
       O     2.82129   -3.93690    7.52981
      H1     1.89703   -4.21056    7.43825
       H     4.59644   -0.86775    5.62564
       O     3.83568   -0.24605    5.58784
      H1     4.02928    0.51464    6.23528
       H     5.42766    3.47760    5.87047
       O     4.97474    3.79839    6.68962
      H1     5.65938    4.35325    7.15034
       H     2.68067    0.64329    9.75836
       O     2.31915   -0.18799   10.02555
      H1     3.17939   -0.72614   10.14946
       H     8.57045    1.79614    7.10461
       O     8.41599    1.86150    6.17631
      H1     9.07935    1.25075    5.79757
       H    -0.05799   -2.15770   10.93421
       O     0.59649   -2.51854   11.57286
      H1     0.12590   -2.89438   12.28787
       H     2.74684   -1.04071   13.84540
       O     3.57915   -1.49598   14.15886
      H1     4.03285   -0.96896   14.81833
       H     9.49337   -0.08270   12.98565
       O     9.69236   -0.52891   12.15492
      H1     8.81260   -0.55119   11.67112
       H     6.14425    0.90442   14.15990
       O     5.71722    1.78319   14.30641
      H1     4.96442    1.61822   14.87771
       H     6.12542    3.64629   13.84116
       O     6.78190    4.36659   13.88877
      H1     6.47298    5.12201   13.32928
       H     8.53799   -1.63843    9.78600
       O     7.92068   -1.53759   10.52185
      H1     7.98197   -2.45161   10.90606
       H     6.31874   -0.79860   10.34531
       O     5.47819   -0.49272    9.99873
      H1     5.18317    0.15094   10.66842
       H     4.30582   -4.25824   12.40021
       O     3.99845   -5.04540   11.95143
      H1     4.33228   -4.90360   11.01843
       H     9.97666   -2.48603    7.72176
       O     9.42077   -1.89468    8.28481
      H1     8.51908   -2.27075    8.22459
       H     2.56684   -0.86908    6.75484
       O     1.73918   -1.00635    7.26308
      H1     1.80455   -0.42994    8.03796
       H     6.44816   -2.28041    6.24113
       O     5.83646   -2.22525    5.51092
      H1     6.39348   -2.00764    4.72933
       H     5.90686   -1.06216   13.20427
       O     6.69875   -0.58277   13.55235
      H1     7.27515   -1.21110   13.92789
       H     1.67430    2.84168    8.33211
       O     2.25618    2.52804    9.01192
      H1     2.99464    2.12786    8.54027
       H     1.03450   -1.00846   12.50685
       O     1.06580   -0.58376   13.39280
      H1     1.31688    0.33796   13.22697
       H     6.04976   -2.85871    8.48512
       O     6.93449   -2.94487    8.04154
      H1     7.07922   -3.89367    7.87000
       H     4.99325    0.89946    8.33936
       O     4.45179    1.45263    7.76076
      H1     4.85479    2.25517    7.49033
       H     2.74452    1.94493   11.88049
       O     1.86810    2.02767   12.27442
      H1     1.75105    2.97749   12.25641
       H     8.14232    2.02368   10.02165
       O     8.92801    1.51818    9.90928
      H1     9.13746    1.14777   10.76414
       H     6.66504    4.21884    9.92148
       O     6.91239    3.53408   10.55863
      H1     7.11678    4.04659   11.32194

