87
frame 10 | Written by MDAnalysis XYZWriter (release 2.4.3)
       H    -9.26129  -16.94229   -3.39104
       O    -9.21466  -16.84988   -4.39225
      H1    -8.42047  -17.33236   -4.62323
       H    -6.59691  -10.27666    0.40542
       O    -6.48807  -11.17431   -0.02230
      H1    -7.05024  -11.27697   -0.74416
       H    -4.33588  -18.10626   -3.22901
       O    -3.63331  -18.50779   -3.81250
      H1    -3.45367  -17.84319   -4.47155
       H    -6.31128  -16.62170    6.14465
       O    -6.41770  -17.41286    5.70191
      H1    -6.46345  -17.21427    4.72394
       H    -9.24697  -18.28329    2.67952
       O    -8.48769  -18.93020    2.62308
      H1    -8.50121  -19.32759    3.46667
       H   -10.84367  -12.22845    0.47231
       O   -11.13828  -12.07606    1.39802
      H1   -10.36577  -11.59505    1.73731
       H   -10.56531  -12.52988   -2.00735
       O   -10.27515  -12.08873   -1.13325
      H1   -10.70215  -11.25212   -1.05621
       H    -4.51620  -12.31965   -4.60992
       O    -5.18126  -13.00945   -4.44060
      H1    -5.66915  -13.22435   -5.26044
       H   -11.43302  -17.14911    2.15643
       O   -10.50952  -17.10484    2.31768
      H1   -10.06933  -16.61343    1.56300
       H    -6.95438  -17.69129    2.74733
       O    -6.13463  -17.21511    2.71518
      H1    -6.24989  -16.76217    1.81575
       H    -3.89476  -12.86024    1.61602
       O    -3.75663  -13.02285    2.54705
      H1    -4.52080  -13.54612    2.84992
       H    -8.73993  -15.26368   -4.97043
       O    -8.54135  -14.37724   -5.47958
      H1    -9.22433  -13.84477   -5.05894
       H    -2.70422  -14.97647   -1.04623
       O    -3.24508  -14.89022   -1.83476
      H1    -2.69756  -14.93469   -2.65637
       H    -6.06464  -17.48253   -3.62469
       O    -5.87715  -17.36187   -2.72299
      H1    -5.65581  -16.41495   -2.67210
       H    -6.83657  -13.97123    2.69648
       O    -6.11427  -14.30280    3.16592
      H1    -6.10484  -15.24404    2.94736
       H    -8.65888  -11.17710   -5.18237
       O    -8.21702  -10.69908   -4.51892
      H1    -8.04960  -11.27271   -3.77296
       H    -0.91349  -14.81375    0.40284
       O    -1.45431  -15.54708    0.01544
      H1    -0.82324  -16.01766   -0.57730
       H    -1.80874  -16.01176    1.75113
       O    -1.85627  -16.10592    2.74817
      H1    -2.05714  -15.23412    3.09555
       H    -5.82654  -13.81348   -3.19921
       O    -5.86231  -14.47029   -2.48881
      H1    -4.89970  -14.53076   -2.17301
       H    -3.46420  -18.90785    0.38012
       O    -4.41018  -18.92878    0.48547
      H1    -4.60706  -18.40399    1.25017
       H    -8.70523  -12.41072   -2.08951
       O    -7.74817  -12.20699   -2.32193
      H1    -7.42025  -13.06785   -2.68326
       H    -4.36841  -11.63095   -0.08499
       O    -3.60268  -12.20959   -0.10806
      H1    -3.81488  -12.84049   -0.80818
       H    -5.83945  -16.17644   -0.26487
       O    -6.41953  -15.72865    0.37464
      H1    -6.91769  -15.07880   -0.08974
       H    -2.66872  -18.12787   -2.49508
       O    -2.25668  -17.76777   -1.65533
      H1    -2.79230  -16.94931   -1.53363
       H    -7.74625  -12.63146    0.95937
       O    -8.17488  -13.16122    1.65309
      H1    -8.82736  -13.63866    1.13592
       H    -8.84908  -16.87117   -0.27506
       O    -9.45586  -16.12085   -0.11680
      H1   -10.14650  -16.21629   -0.75108
       H    -7.35216  -19.10485   -0.55521
       O    -7.77940  -18.26199   -0.87907
      H1    -7.08848  -17.80554   -1.42044
       H   -12.01575  -15.76707   -1.63246
       O   -11.37855  -15.91112   -2.32483
      H1   -11.90156  -16.56378   -2.83730
       H   -11.15851  -13.18898   -3.98173
       O   -10.42639  -13.58299   -3.49398
      H1   -10.72619  -14.31273   -2.95433

