87
frame 9 | Written by MDAnalysis XYZWriter (release 2.4.3)
       H     7.26149   16.91607    7.66306
       O     7.37325   15.94319    7.73869
      H1     6.78244   15.62291    7.04589
       H     8.12616    8.82060    3.96581
       O     8.79948    8.27945    3.51072
      H1     8.28479    8.13375    2.72165
       H     4.98320   13.00714    0.58093
       O     4.77587   12.08322    0.42106
      H1     5.33041   11.87156   -0.36541
       H     2.66541    9.57071    5.72739
       O     3.40353    9.63261    6.36860
      H1     3.62689   10.55482    6.30671
       H     2.19026   15.84556    6.91126
       O     2.90946   16.46110    6.70022
      H1     2.53674   17.22655    6.31372
       H     5.35614   14.65135    2.64623
       O     5.00783   15.49721    2.23931
      H1     4.23763   15.67176    2.77420
       H     4.04307   12.45960    7.43642
       O     3.10599   12.33301    7.68227
      H1     3.16870   11.88682    8.55914
       H     0.86834   14.33234    6.29430
       O     0.96730   14.30207    7.27652
      H1     1.67037   13.64604    7.37802
       H     7.04813    7.48610    6.49139
       O     6.59496    7.96467    7.21779
      H1     6.36249    8.82953    6.87082
       H     9.64002   14.20121    5.54271
       O     9.81087   13.51927    4.90629
      H1    10.68838   13.22243    4.93444
       H     4.95809   13.71398   10.80158
       O     4.54076   13.11330   11.40263
      H1     3.96096   12.57823   10.84815
       H     8.48044   16.17251    6.15294
       O     9.26986   16.12652    5.64872
      H1     9.11230   16.69412    4.84527
       H     5.92400   17.20165    3.30373
       O     6.38022   17.34705    4.18760
      H1     5.97706   16.60917    4.62470
       H     2.50145   15.39390   10.27876
       O     3.25352   15.86502    9.83254
      H1     2.94805   16.16418    8.92366
       H     5.85489   11.95967   11.44015
       O     6.48340   11.28688   11.58920
      H1     7.27682   11.78246   11.76961
       H     6.30428   10.13196    3.67514
       O     6.62241    9.66893    4.49209
      H1     5.76133    9.22500    4.70251
       H     2.51693   11.62230    3.29546
       O     3.15708   11.28529    2.67117
      H1     2.72765   11.63957    1.84505
       H     5.44998   12.68442    5.11906
       O     5.43929   12.88863    6.06555
      H1     5.99091   12.40788    6.62309
       H    10.43886   11.29741    7.58040
       O     9.63124   11.19417    7.04666
      H1     9.52556   11.97052    6.44442
       H     1.95316   16.62206    2.45353
       O     2.43649   16.57566    3.33384
      H1     1.91277   16.08063    3.95184
       H     7.69556   10.65552    7.70893
       O     6.85352   11.05070    7.74385
      H1     6.90320   11.73722    8.41118
       H     6.62923   15.39977    9.53109
       O     5.97947   15.22870   10.23304
      H1     5.21152   15.52888    9.84542
       H     5.43725   14.54743    5.87511
       O     5.37226   15.51404    5.93389
      H1     4.38649   15.74117    6.08063
       H     3.03825    7.68516    8.91387
       O     2.40963    7.92394    8.22671
      H1     2.92612    8.61715    7.79960
       H     0.50180   12.50473    4.20322
       O     0.78199   13.41351    4.26713
      H1     0.14173   13.94449    3.78115
       H     7.39247   11.28790    1.57761
       O     6.59229   10.92153    1.96484
      H1     5.84671   11.11882    1.30234
       H     1.94031   11.41197   10.08726
       O     2.88426   11.38915   10.24072
      H1     3.02346   10.41849   10.38186
       H     8.70926   13.06390    3.57415
       O     8.44774   13.20571    2.61867
      H1     9.25473   12.83457    2.21506
       H     6.20897   12.65480    2.86441
       O     5.45603   13.05620    3.23679
      H1     4.61230   12.66078    2.83289

