87
frame 9 | Written by MDAnalysis XYZWriter (release 2.4.3)
       H     8.39237    1.44542  -16.00487
       O     7.72699    1.68588  -16.66389
      H1     8.19179    2.19965  -17.28632
       H     0.65261    6.82336  -14.24902
       O     0.03869    7.13219  -13.55885
      H1    -0.32563    6.38999  -13.11852
       H    -1.99602    7.36964  -15.84731
       O    -2.52296    7.36266  -14.99338
      H1    -3.45050    7.73270  -15.04218
       H     1.67211    2.97314  -16.12246
       O     1.12516    3.75404  -15.89869
      H1     1.11243    3.79210  -14.87661
       H    -0.49044    4.47690  -17.94547
       O     0.08783    5.06357  -18.45404
      H1     0.95687    4.69425  -18.38855
       H     4.46055    2.54612  -14.61041
       O     4.19632    1.70832  -14.18110
      H1     4.82079    1.05152  -14.52787
       H     8.50645    4.25343  -16.55594
       O     8.37035    4.58930  -15.61007
      H1     8.13918    5.52651  -15.76360
       H     2.74767    7.00458  -11.92302
       O     3.19809    6.34543  -12.42461
      H1     2.73519    6.39994  -13.27760
       H     1.01564   -0.95734  -14.98279
       O     1.02935   -1.01177  -15.92054
      H1     1.58730   -0.29735  -16.21311
       H     5.23054    5.68213  -13.08344
       O     5.57873    5.23284  -13.81068
      H1     6.43319    4.84983  -13.62078
       H    -4.14850    5.92913  -19.60167
       O    -4.16645    5.06031  -19.19245
      H1    -3.91069    4.45957  -19.91525
       H     3.16104    6.75878  -15.33691
       O     2.29572    6.29336  -15.27312
      H1     2.26188    5.41203  -15.71890
       H    10.56383    6.28089  -19.07242
       O     9.90394    5.85277  -18.54032
      H1    10.28539    6.03947  -17.67468
       H     1.79906    2.76982  -11.95175
       O     1.45347    2.95572  -12.82258
      H1     0.57525    2.49991  -12.94996
       H     0.63036    8.59544  -16.28043
       O     0.89291    7.96471  -16.93991
      H1     1.32239    7.21534  -16.47798
       H     6.83932   -0.25784  -14.38740
       O     6.24123   -0.10292  -15.13928
      H1     6.81280    0.56406  -15.60271
       H     2.28878    9.48530  -17.64972
       O     2.95771    9.67116  -18.35433
      H1     3.76036    9.52721  -17.86075
       H     5.41714    4.32474  -15.45242
       O     5.12592    3.67526  -16.10490
      H1     5.99619    3.40660  -16.41647
       H    -0.09737   -0.73827  -19.40960
       O     0.64421   -1.06071  -18.88347
      H1     0.34377   -1.90107  -18.37654
       H    -1.46651    2.79187  -17.30475
       O    -1.51211    3.60884  -16.75921
      H1    -0.70453    3.55098  -16.26273
       H    -0.22395    0.23504  -15.73600
       O    -1.09301    0.53881  -15.47969
      H1    -0.96994    0.89966  -14.59971
       H    -2.12873    0.78181  -17.15252
       O    -2.22474    1.28436  -17.96540
      H1    -3.16610    1.56348  -18.05152
       H     3.88212    4.03605  -17.85079
       O     3.31685    3.46628  -18.39383
      H1     3.07996    3.98840  -19.13403
       H    -2.30168    6.42348  -18.27449
       O    -1.79829    6.95061  -17.66227
      H1    -0.88148    6.77764  -17.92512
       H     6.17925    8.59857  -18.24250
       O     5.81149    9.33941  -17.70906
      H1     5.89965   10.23050  -18.15995
       H     2.90540    1.60694  -15.41151
       O     2.39046    1.44538  -16.20833
      H1     2.96182    1.59907  -16.93810
       H     6.83192    6.45229  -19.45358
       O     6.91041    7.29281  -19.03757
      H1     7.69456    7.19475  -18.48110
       H     5.15474    8.54863  -15.59716
       O     4.30183    8.31572  -15.32871
      H1     3.79871    9.09460  -14.96611
       H     6.65439   -1.23385  -17.02289
       O     6.59114   -1.38081  -17.95975
      H1     7.53907   -1.38040  -18.24286

