87
frame 9 | Written by MDAnalysis XYZWriter (release 2.4.3)
       H    -4.44426    3.55205   -2.85600
       O    -4.54079    2.70667   -3.38585
      H1    -5.45644    2.77151   -3.59788
       H    -4.66907   -2.41065   -6.28206
       O    -4.26943   -1.79703   -6.82948
      H1    -4.72993   -1.94208   -7.66453
       H    -7.28366    5.26162   -3.74545
       O    -7.40903    5.22579   -2.75694
      H1    -7.58703    4.29883   -2.59581
       H    -0.53698   -2.69849   -4.43797
       O    -1.32231   -2.42747   -3.94797
      H1    -1.11066   -1.51846   -3.68478
       H    -3.87980   -0.03137   -6.18550
       O    -4.04588    0.84740   -5.86016
      H1    -3.34477    1.08843   -5.22080
       H    -8.82144   -0.10670   -7.96440
       O    -8.91528   -0.90223   -8.52939
      H1    -9.69332   -0.87572   -9.04976
       H    -4.25275   -2.98694   -2.04405
       O    -3.71529   -3.54289   -2.60933
      H1    -3.05382   -2.92749   -3.06238
       H    -6.42677    4.24990   -5.82154
       O    -6.94120    5.03702   -5.47761
      H1    -7.86011    4.75736   -5.42183
       H    -9.00122   -6.29539   -3.54407
       O    -8.23188   -5.77841   -3.53386
      H1    -8.10757   -5.47032   -4.45184
       H    -5.26128    3.24806   -7.61613
       O    -5.50162    3.10820   -6.67567
      H1    -4.88634    2.39448   -6.44980
       H    -8.97348   -5.39260   -6.19044
       O    -8.11062   -4.99525   -5.98555
      H1    -7.47283   -5.20010   -6.70219
       H    -1.52397    1.79004   -4.11809
       O    -2.23845    2.32069   -4.48109
      H1    -3.09938    2.24979   -4.00350
       H    -2.46486    0.27929   -2.21035
       O    -1.53273    0.11129   -2.35818
      H1    -1.01640    0.91263   -2.21721
       H    -4.61549   -1.31369   -0.70919
       O    -4.78450   -2.12432   -0.24046
      H1    -5.76418   -2.09876   -0.13979
       H    -8.71690    2.15161   -2.87416
       O    -7.77226    2.42520   -2.74481
      H1    -7.23314    1.73362   -3.21364
       H   -10.30926    1.47562   -1.61599
       O   -10.30755    1.70122   -2.54190
      H1   -10.99123    2.42802   -2.55300
       H    -3.83383   -5.42779   -1.09201
       O    -4.76208   -5.69132   -0.93765
      H1    -5.33815   -4.97408   -1.28378
       H   -10.31242    0.00522   -4.20296
       O    -9.52042   -0.09075   -4.81453
      H1    -9.46994   -1.06417   -4.97984
       H    -6.50810   -0.40299   -3.69521
       O    -6.15781    0.47462   -3.85881
      H1    -5.59785    0.49860   -4.67498
       H    -7.60013   -2.79384   -0.53628
       O    -7.48391   -1.79227   -0.37841
      H1    -7.99356   -1.72929    0.41492
       H    -8.62905   -3.31446   -6.32347
       O    -9.23345   -2.57215   -6.26964
      H1    -9.04039   -2.04221   -7.01048
       H   -11.11873    0.17484   -2.48709
       O   -11.66083   -0.56556   -2.87377
      H1   -11.84104   -1.09981   -2.09491
       H    -4.28416    2.96734   -0.38172
       O    -3.74502    2.24931    0.01531
      H1    -2.85920    2.64517    0.06590
       H    -7.72902   -4.85425   -1.92414
       O    -7.42719   -4.55317   -1.06223
      H1    -7.84641   -5.07384   -0.38350
       H    -8.37239    0.89916   -6.01164
       O    -7.95723    1.25392   -6.79271
      H1    -7.02548    1.29832   -6.60533
       H    -4.85999    0.50490   -2.48218
       O    -4.24200    0.17258   -1.79713
      H1    -3.87243    0.90405   -1.35307
       H    -9.07368    2.71525   -0.19287
       O    -8.20428    2.26193   -0.21771
      H1    -7.90399    2.35583   -1.15836
       H   -10.00680   -0.87598   -0.67608
       O   -10.10870   -0.08832   -0.11999
      H1    -9.26905    0.41647   -0.15527
       H    -5.64976   -4.44858   -5.38377
       O    -5.43999   -3.66974   -4.86634
      H1    -4.76142   -3.97891   -4.25851

