87
frame 10 | Written by MDAnalysis XYZWriter (release 2.4.3)
       H   -13.71267   15.53516    3.51432
       O   -13.86890   15.58034    4.48825
      H1   -14.50344   16.31848    4.55193
       H   -12.05521    9.56841    3.06019
       O   -12.97775    9.72477    2.70839
      H1   -12.92437   10.48383    2.08497
       H   -16.89033   14.50699    5.48516
       O   -17.12458   13.70484    5.09286
      H1   -16.49458   13.42246    4.41714
       H   -12.05296   15.50346    0.12838
       O   -12.12097   16.07104   -0.66052
      H1   -12.79959   15.72065   -1.23150
       H   -13.81098    9.20005   -0.16861
       O   -13.12403    8.67170   -0.59302
      H1   -12.85390    7.94156   -0.03459
       H   -15.07202    7.91335   -2.63004
       O   -14.23478    7.49401   -2.73893
      H1   -13.65395    7.97712   -2.05082
       H   -13.07138   15.61819   -3.62666
       O   -13.81280   15.20278   -3.16779
      H1   -14.57075   15.82946   -3.11375
       H    -8.71842   13.03133   -0.46504
       O    -8.11480   12.35967   -0.20436
      H1    -7.27481   12.87360   -0.13982
       H   -11.48447   16.86924    1.93145
       O   -11.44263   17.58620    2.59214
      H1   -10.88245   17.21366    3.25383
       H   -18.32360   14.44881    0.50421
       O   -18.24953   13.71702    1.18333
      H1   -18.43533   14.18540    2.02440
       H    -9.02332   12.68397    2.67923
       O    -8.66173   11.84219    2.43004
      H1    -8.13669   11.99331    1.63793
       H   -16.52187   13.09775    1.79766
       O   -15.73975   13.11014    2.40007
      H1   -15.25203   12.34709    2.09350
       H   -14.08230   13.36033   -2.33669
       O   -13.85682   12.78008   -1.56877
      H1   -14.11143   11.90966   -1.88267
       H    -9.58086   14.34559   -2.06831
       O    -9.68574   14.61219   -1.15664
      H1   -10.44634   15.22727   -1.23349
       H   -11.25998   11.18209   -1.93041
       O   -11.62148   11.68593   -2.64868
      H1   -12.24253   12.18725   -2.11409
       H   -15.47965    9.78144    1.33692
       O   -15.09566   10.32596    0.67083
      H1   -15.70388   10.59072   -0.05323
       H   -14.82405   15.46388    0.61202
       O   -14.38303   15.29050    1.49634
      H1   -14.83403   14.47525    1.77380
       H    -9.93079   14.01558    4.31269
       O    -9.44092   14.41498    3.61898
      H1   -10.16400   14.79768    3.01608
       H   -17.65266   13.58007   -2.15655
       O   -17.96323   12.74934   -2.69125
      H1   -17.89752   13.03124   -3.59006
       H   -11.85521   13.50550    5.65313
       O   -10.97368   13.84896    5.93894
      H1   -10.52481   13.30479    6.57898
       H    -9.36043    9.94264    2.95799
       O    -9.92220    9.33790    3.43052
      H1    -9.41671    8.54680    3.51778
       H   -11.93120   12.01842    1.16076
       O   -12.73500   12.53874    1.37925
      H1   -13.38717   12.16424    0.76921
       H   -14.09121   13.73962    5.42426
       O   -13.72200   12.95194    5.84750
      H1   -14.15877   12.23832    5.41347
       H   -14.44647    8.39935    2.21848
       O   -15.36291    8.52132    2.56544
      H1   -15.95905    7.94135    2.09045
       H   -15.19362    9.62865    5.39369
       O   -14.47689   10.23144    5.12887
      H1   -13.98949    9.70189    4.44320
       H   -10.07850   10.29095   -0.17992
       O   -11.01068   10.52583   -0.04942
      H1   -11.49976    9.63971   -0.11784
       H   -17.35335    9.97912   -1.15687
       O   -16.72413   10.41893   -1.64583
      H1   -17.07100   11.24807   -1.90891
       H   -10.03740   12.69943   -3.50931
       O    -9.66382   13.55694   -3.68685
      H1    -8.79436   13.47966   -4.09806
       H   -11.44568   13.91491    1.35287
       O   -11.15780   14.86597    1.57504
      H1   -10.29120   14.92722    1.11712

