87
frame 11 | Written by MDAnalysis XYZWriter (release 2.4.3)
       H    15.86570    8.41740   -5.83569
       O    15.95158    9.23752   -6.40078
      H1    15.12775    9.74502   -6.22721
       H    16.70271   13.69267   -4.94720
       O    16.13969   14.39185   -4.54975
      H1    15.55945   13.97503   -3.89947
       H    14.90401   11.42887   -2.98198
       O    14.65077   12.31663   -3.23268
      H1    13.72813   12.21652   -3.60624
       H    18.34552   17.19563   -3.91847
       O    18.81340   16.35865   -4.05098
      H1    18.17300   15.69723   -3.83060
       H    13.77079    9.73730    1.72993
       O    13.03141    9.30762    1.20998
      H1    13.50167    8.96150    0.39320
       H    15.23898    7.90154   -8.01411
       O    14.39622    8.00580   -8.46856
      H1    13.94811    8.70755   -8.00024
       H    18.65122   10.00028   -3.33850
       O    18.16706   10.26919   -2.56185
      H1    18.71217   10.89622   -2.07359
       H    16.07073   13.58924    3.26283
       O    15.60326   14.11782    2.55354
      H1    15.53983   13.58568    1.76443
       H    12.38123    8.87501   -4.56043
       O    11.98875    9.01909   -3.70932
      H1    11.02813    8.97356   -3.86883
       H    18.18852    6.86656   -4.53623
       O    17.76839    6.45629   -3.75729
      H1    17.64089    5.51232   -3.90938
       H    17.32188   15.73021   -0.41320
       O    17.93293   16.18859   -0.98928
      H1    17.80804   17.10970   -0.67363
       H    19.07253    9.94498   -5.59527
       O    18.50346   10.37728   -6.23274
      H1    17.72572    9.83469   -6.30286
       H    12.04831   12.08609   -3.27445
       O    12.06315   11.71578   -4.17725
      H1    12.07529   10.73308   -4.06140
       H    12.82494   14.17080    0.49558
       O    13.17921   13.25426    0.25432
      H1    13.20404   13.15055   -0.71112
       H    12.62005    4.96205   -3.66127
       O    13.02904    4.84763   -4.50463
      H1    13.80599    5.46770   -4.52229
       H    16.60649    3.45202   -4.31893
       O    17.30981    3.71947   -3.70308
      H1    18.17639    3.59149   -4.11462
       H    14.97982   15.14184   -5.71932
       O    14.30272   15.34429   -6.39835
      H1    14.77865   15.98846   -6.90869
       H    17.12224    5.85649   -7.10820
       O    18.01889    6.17018   -6.76729
      H1    18.49541    6.63335   -7.49672
       H    12.78562   10.60478   -6.36649
       O    13.09913    9.68129   -6.60138
      H1    12.28193    9.25743   -6.84490
       H    20.03983    8.07261   -2.04164
       O    20.05017    7.36684   -2.76615
      H1    19.18787    7.12184   -3.03627
       H    15.65068    7.55729    0.18258
       O    14.90272    7.76334   -0.38457
      H1    14.55036    6.92597   -0.60360
       H    16.32182    9.85945   -2.03222
       O    15.36906    9.94961   -1.88077
      H1    15.15459    9.09452   -1.40370
       H    15.89245    6.85611   -3.93539
       O    15.24632    7.53338   -4.33332
      H1    15.45969    8.32788   -3.80415
       H    14.44379   11.90488    0.46484
       O    15.30307   11.45745    0.32499
      H1    15.22750   11.02295   -0.55802
       H    15.58435   10.61357    1.82131
       O    15.32088   10.34622    2.72337
      H1    15.94693    9.77250    3.14089
       H    15.13276   17.33939   -4.69350
       O    15.71451   17.07392   -3.94761
      H1    15.96004   16.10980   -4.08647
       H    14.20821    4.65113   -0.68699
       O    13.65624    5.40680   -0.85540
      H1    13.17928    5.54650   -0.06110
       H    17.84282   11.99494   -6.14435
       O    17.75004   12.94343   -6.16872
      H1    18.07743   13.24987   -7.04541
       H    17.49539    7.23012    1.64221
       O    17.68733    7.81595    0.85142
      H1    18.37632    7.36120    0.45249

