87
frame 11 | Written by MDAnalysis XYZWriter (release 2.4.3)
       H    18.43580  -13.43397   -6.40247
       O    18.38109  -13.44880   -7.39600
      H1    17.98404  -12.63342   -7.75115
       H    19.03330  -15.21064   -7.49783
       O    19.43669  -16.09390   -7.64828
      H1    18.87108  -16.38103   -8.35386
       H    19.34476  -16.75426   -2.30280
       O    18.67807  -16.11927   -2.53055
      H1    18.10414  -16.68949   -3.07670
       H    16.20442  -15.16729    0.34047
       O    16.56470  -14.47807   -0.27180
      H1    16.46355  -14.77725   -1.15668
       H    19.23688   -9.09198   -7.15435
       O    18.43807   -9.32790   -6.62024
      H1    18.84641   -9.68796   -5.80171
       H    17.85589  -14.17783    0.53064
       O    18.67788  -14.00973    1.00805
      H1    18.48086  -14.07068    1.94647
       H    12.09503  -14.94430   -6.30308
       O    12.02230  -14.97356   -5.32340
      H1    12.79167  -14.48478   -5.04924
       H    13.17427  -18.31290   -5.87875
       O    12.30325  -18.75312   -5.89620
      H1    11.67546  -18.19267   -6.32425
       H    16.91210  -12.61066   -3.44335
       O    16.71659  -12.19904   -2.60792
      H1    15.77222  -11.92470   -2.56982
       H    18.17045  -18.13708    1.72774
       O    18.41064  -18.67097    2.50198
      H1    17.70972  -19.29838    2.70232
       H    14.98318  -17.07512   -6.46081
       O    14.86293  -17.97307   -6.10042
      H1    15.68241  -18.46584   -6.41955
       H    14.69750  -18.79346   -0.68602
       O    14.68676  -17.81002   -0.78058
      H1    15.13363  -17.47623    0.05913
       H    18.74298  -18.89643  -10.55649
       O    19.55484  -19.14857  -10.97295
      H1    19.74612  -20.09248  -10.78512
       H    19.32404  -17.03066   -6.18230
       O    19.11434  -17.68657   -5.39327
      H1    19.33186  -17.20386   -4.58877
       H    15.49110  -10.18454   -4.93906
       O    15.89178  -10.90152   -5.41470
      H1    15.54439  -10.78478   -6.33294
       H    17.97565  -18.87861   -6.27367
       O    17.20651  -19.34387   -6.72277
      H1    17.35840  -20.20659   -6.29623
       H    14.48911  -15.49443   -9.79540
       O    13.51990  -15.33335   -9.72272
      H1    13.39813  -14.61718   -9.07283
       H    15.28446  -15.88575   -3.63466
       O    14.95209  -15.08172   -3.19820
      H1    13.98647  -15.21335   -3.05645
       H    15.60374  -14.60702   -6.15085
       O    16.00289  -15.27687   -6.71765
      H1    16.77417  -14.77384   -7.10157
       H    15.04507  -12.46593   -5.16241
       O    14.54286  -13.33513   -5.16273
      H1    14.80867  -13.83469   -4.38255
       H    15.41604  -16.19049  -11.53250
       O    15.90927  -15.81168  -10.76040
      H1    16.27545  -16.53604  -10.24383
       H    16.73069  -16.71761    1.09091
       O    15.93003  -16.32414    1.35844
      H1    15.89636  -16.35987    2.34741
       H    18.71485  -12.36648   -4.39908
       O    18.48736  -13.32780   -4.57459
      H1    19.13968  -13.78111   -4.07574
       H    17.93115  -10.58652   -7.96512
       O    17.60718  -11.10766   -8.68981
      H1    18.29545  -11.28800   -9.37828
       H    18.11209  -17.02190   -0.72377
       O    17.95630  -17.68678    0.01081
      H1    17.80307  -18.58751   -0.41504
       H    17.60006  -10.76567   -4.69388
       O    18.51772  -10.64916   -4.51568
      H1    18.52110   -9.96825   -3.80134
       H    15.44655  -17.86769   -4.46574
       O    16.04462  -17.78883   -3.69445
      H1    15.45305  -17.88264   -2.88036
       H    18.10949  -12.03165   -1.29703
       O    18.55569  -11.68974   -0.51402
      H1    18.66798  -12.50487    0.00441
       H    17.13214  -18.80718   -8.94000
       O    17.12834  -18.30682   -9.76402
      H1    16.35084  -18.64664  -10.17369

