87
frame 11 | Written by MDAnalysis XYZWriter (release 2.4.3)
       H    14.03599  -15.57925   12.51051
       O    13.58895  -15.92587   11.74878
      H1    12.73173  -16.16201   12.06844
       H     7.94439  -17.46030   14.16937
       O     7.79865  -17.08068   13.29660
      H1     6.86646  -16.98814   13.17776
       H     7.72349  -17.75112   16.50777
       O     8.39491  -17.65614   15.78715
      H1     8.46895  -16.67273   15.71167
       H     9.19192  -12.91538   13.07083
       O     9.89097  -13.44372   12.66694
      H1     9.94901  -14.23861   13.20231
       H    14.18380  -19.52605   15.54390
       O    14.08889  -18.58680   15.48210
      H1    13.36248  -18.50592   14.85140
       H     8.50327  -14.67845   17.54597
       O     8.85901  -14.74254   18.41114
      H1     9.57838  -14.13617   18.34624
       H    12.82655  -14.44368   15.03950
       O    12.01838  -14.16586   15.47593
      H1    11.24257  -14.48108   14.91812
       H     4.85781  -15.18084   19.31648
       O     5.78554  -15.25753   19.60876
      H1     6.20053  -14.43092   19.51568
       H    12.23569  -12.52921   15.06212
       O    12.63609  -11.65202   15.16498
      H1    12.81804  -11.35943   14.27245
       H    11.86141  -18.16149   13.30923
       O    11.89763  -18.66787   14.13958
      H1    12.49210  -19.41994   13.92790
       H     8.88726  -10.15388   14.06572
       O     9.20900   -9.31385   13.71204
      H1     9.61457   -9.57963   12.88968
       H    11.06790  -10.66343   15.92527
       O    10.30820  -10.58020   16.54516
      H1    10.26989  -11.32646   17.17249
       H     9.98989  -11.79371   19.52693
       O    10.21339  -12.17196   18.68268
      H1    11.07470  -12.49362   18.84448
       H     8.85767  -16.12061   11.07287
       O     9.16033  -15.35106   10.56784
      H1     9.12932  -14.55621   11.19297
       H    11.47822  -12.55052   12.73501
       O    12.11742  -11.88777   12.46301
      H1    12.22830  -12.04933   11.51067
       H     5.27758  -11.22708   15.11893
       O     5.40912  -11.23667   14.15195
      H1     4.86150  -10.52803   13.90975
       H     8.64263  -15.72492   14.14029
       O     9.00540  -15.23347   14.90999
      H1     8.28701  -14.54223   15.07174
       H    10.85271  -17.72453   11.58541
       O    11.00349  -16.81367   11.92058
      H1    10.47700  -16.24554   11.37896
       H    10.34651  -18.36785   17.82313
       O    10.10192  -17.90466   18.62164
      H1     9.72733  -17.08980   18.38479
       H    14.76887  -15.40880   14.33615
       O    14.33993  -14.62464   14.08887
      H1    15.03665  -14.01459   14.08440
       H     6.37576  -11.79513   12.25100
       O     6.99431  -12.42772   11.85452
      H1     6.47876  -13.19619   11.61082
       H     6.27024  -16.85044   18.58133
       O     6.39290  -17.18168   17.68978
      H1     5.64670  -16.74598   17.25713
       H     9.32822  -19.48565   16.30634
       O    10.31070  -19.50066   16.38943
      H1    10.58601  -19.03038   15.59903
       H     4.22058  -13.04994   13.86086
       O     3.80391  -13.92404   13.71623
      H1     4.30413  -14.38411   13.05211
       H     6.75504  -13.06893   17.17080
       O     6.77910  -13.86731   16.64600
      H1     5.95432  -14.38996   16.75512
       H     8.90988  -11.46854   15.52067
       O     8.38638  -11.83202   14.81907
      H1     7.51570  -11.46923   14.89256
       H     3.79537  -15.87478   16.12561
       O     4.58095  -15.69575   15.62865
      H1     4.38906  -14.96551   15.01971
       H     8.60674  -18.32524   10.36931
       O     7.75864  -17.86053   10.56300
      H1     7.62473  -17.84302   11.53900
       H     4.59290  -16.84267   14.40977
       O     4.97907  -17.44025   13.67429
      H1     4.20527  -17.47738   13.14494

