87
frame 10 | Written by MDAnalysis XYZWriter (release 2.4.3)
       H     2.14233   15.69221  -15.84905
       O     3.05550   15.55557  -16.14926
      H1     3.01568   15.63848  -17.14585
       H     4.79920   18.43464  -15.09748
       O     4.12420   17.85233  -14.74388
      H1     4.00949   17.25165  -15.51220
       H    -6.29792   15.76346  -16.26785
       O    -5.45469   15.30426  -16.17382
      H1    -4.95799   15.45922  -16.95072
       H    -2.75304   17.11257  -13.19622
       O    -3.14555   17.90512  -13.56435
      H1    -2.46579   18.10331  -14.20200
       H    -5.06420   17.68385  -14.53333
       O    -5.92868   18.07582  -14.68390
      H1    -6.06887   18.47368  -13.79673
       H    -5.54330   18.81794  -16.46527
       O    -5.21213   19.50975  -17.02329
      H1    -5.98885   19.79780  -17.51236
       H     0.93129   15.55012  -13.65008
       O     0.84292   15.53595  -14.62660
      H1     0.89633   14.61185  -14.86809
       H    -1.98768   17.09324  -17.26777
       O    -1.30705   16.57516  -16.85690
      H1    -1.42477   15.61605  -16.89059
       H    -3.72475   16.79276  -18.52688
       O    -3.93351   15.89689  -18.34470
      H1    -4.39399   15.62822  -19.17879
       H    -5.98146   13.47575  -16.19638
       O    -6.34806   12.64647  -16.50855
      H1    -6.04488   11.89072  -15.98149
       H     0.11704   18.30540  -14.47369
       O    -0.63089   18.45803  -15.05513
      H1    -0.84991   17.61613  -15.41823
       H    -2.52052   12.94586  -13.52507
       O    -1.67731   13.47626  -13.45873
      H1    -1.06888   13.03451  -12.79690
       H    -7.27478   18.87216  -18.54977
       O    -7.53684   19.77163  -18.37853
      H1    -7.17772   20.21060  -19.15792
       H     2.64904   18.07639  -13.76964
       O     1.66967   18.27637  -13.48944
      H1     1.73078   17.99125  -12.52613
       H    -5.77672   19.32246  -11.40912
       O    -6.40315   19.13663  -12.16970
      H1    -7.11498   18.55128  -11.87134
       H    -7.43065   16.96855  -14.39463
       O    -8.11038   16.31325  -14.15645
      H1    -8.21806   15.76583  -14.94380
       H    -6.05069   17.01109  -18.12270
       O    -6.81911   17.06555  -17.50652
      H1    -7.50853   16.57280  -17.91074
       H    -0.05357   12.78166  -19.34182
       O    -0.10050   13.59382  -18.72460
      H1    -0.84829   13.45234  -18.07687
       H    -8.45865   14.46000  -16.97445
       O    -8.47351   14.21627  -16.06774
      H1    -7.67145   13.67920  -16.04621
       H    -8.15696   13.10555  -18.56518
       O    -7.37373   12.60887  -18.82857
      H1    -6.75913   12.54513  -17.99059
       H   -10.02520   15.74762  -18.01292
       O    -9.18057   15.90085  -18.52348
      H1    -9.51192   16.59505  -19.07982
       H     2.70655   16.71946  -18.77588
       O     3.38770   16.02057  -18.81091
      H1     4.20112   16.53505  -18.92670
       H    -3.58862   18.97711  -17.52051
       O    -2.85496   18.57728  -17.99335
      H1    -2.87499   18.98256  -18.87700
       H    -1.55893   13.42328  -15.64620
       O    -2.04008   13.68077  -16.46301
      H1    -2.88857   13.86573  -16.13107
       H    -1.71542   18.07557  -11.74481
       O    -1.48682   18.74812  -11.08479
      H1    -1.86485   19.55738  -11.44972
       H    -7.16198   13.98778  -13.23221
       O    -6.19433   14.21332  -13.33826
      H1    -6.21598   15.20161  -13.35019
       H     0.54385   17.48796  -17.58136
       O     1.25576   17.82231  -18.17196
      H1     1.72470   18.51222  -17.68619
       H    -2.21260   15.29241  -12.49973
       O    -2.57961   15.84753  -11.76794
      H1    -2.00013   15.68089  -11.02478
       H     1.35864   13.25419  -18.00569
       O     1.91724   12.78514  -17.37772
      H1     2.41373   12.11853  -17.82757

