87
frame 10 | Written by MDAnalysis XYZWriter (release 2.4.3)
       H     7.74006  -18.11531   -5.06883
       O     6.81256  -18.24934   -5.39388
      H1     6.47770  -17.36977   -5.40747
       H    -0.74874  -13.57671   -6.77058
       O    -1.53104  -14.10584   -6.87956
      H1    -2.09024  -14.05781   -6.09482
       H    -0.06571  -11.43943   -6.43441
       O     0.10834  -12.27409   -6.10986
      H1     0.06727  -12.27607   -5.16415
       H     8.22598  -13.95376   -3.58360
       O     8.14842  -14.79104   -4.07152
      H1     8.41058  -14.54000   -4.95685
       H     3.65086  -15.26313   -3.59819
       O     3.54331  -14.91883   -4.54430
      H1     2.68804  -15.21847   -4.81394
       H    -2.64512  -15.24564   -4.87721
       O    -2.58634  -14.32610   -4.50589
      H1    -3.48426  -13.96939   -4.66195
       H    -1.33805  -13.29529   -3.17168
       O    -0.59304  -12.73656   -2.84341
      H1    -1.10150  -11.93729   -2.61577
       H     5.75333  -15.50955   -6.72738
       O     5.35943  -16.15707   -6.18768
      H1     5.04911  -15.67225   -5.42862
       H     1.08308  -15.10893   -3.18155
       O     1.00166  -14.90734   -2.21765
      H1     0.68344  -14.02129   -2.24839
       H     5.22611  -12.64899   -8.44256
       O     5.87184  -12.51881   -7.72453
      H1     5.24874  -12.38869   -6.96928
       H     4.08904  -17.38813    0.41393
       O     4.42429  -16.48486    0.58952
      H1     4.43572  -16.08216   -0.27773
       H     7.58157  -13.21844   -1.38306
       O     6.68507  -13.30640   -1.18999
      H1     6.50593  -12.74239   -0.39031
       H     6.61386  -13.95364   -8.10066
       O     7.10046  -14.80546   -7.96580
      H1     6.95817  -15.37363   -8.67568
       H     4.05666  -11.63629   -5.03496
       O     3.87467  -12.12675   -5.84431
      H1     3.90367  -13.06658   -5.63771
       H     2.98643  -11.11871   -7.12640
       O     2.89135  -10.70293   -8.01431
      H1     2.05602  -10.89242   -8.33488
       H     6.38681  -15.97638   -3.22018
       O     6.47719  -16.64223   -2.52996
      H1     5.68081  -16.71347   -2.13370
       H    -0.06402  -19.53443   -3.04009
       O     0.36128  -19.00793   -2.32483
      H1    -0.37381  -18.48906   -1.94203
       H     4.12842  -18.51761   -9.40957
       O     4.62487  -19.20520   -8.88604
      H1     4.68002  -18.90526   -7.97273
       H     2.34115  -12.01879   -1.39362
       O     2.65058  -12.42084   -0.56532
      H1     3.02683  -11.69005   -0.08818
       H    -0.91349  -14.81375    0.40284
       O    -1.45431  -15.54708    0.01544
      H1    -0.82324  -16.01766   -0.57730
       H    -3.42708  -16.42380   -6.27618
       O    -2.84841  -16.62850   -5.49437
      H1    -2.03813  -17.01016   -5.81923
       H    -0.15996  -17.56500   -8.92414
       O    -0.90577  -17.73576   -8.37477
      H1    -1.19407  -18.61783   -8.56777
       H     3.07343  -15.40474   -1.71496
       O     4.04999  -15.35936   -1.77706
      H1     4.22067  -14.49527   -1.42879
       H     1.89376  -18.01221   -3.14708
       O     2.72702  -17.63562   -3.41972
      H1     2.92314  -18.15380   -4.18406
       H    -0.00657  -18.56871   -5.50218
       O    -0.15230  -17.63368   -5.81746
      H1    -0.43675  -17.69454   -6.74438
       H     3.58613  -11.96559   -9.48845
       O     3.92904  -12.79428   -9.85863
      H1     4.15813  -12.60384  -10.79504
       H     0.71526  -16.23277   -5.08893
       O     0.81646  -15.25040   -4.93582
      H1     0.00434  -14.83228   -5.26092
       H     4.43426   -9.58099   -4.67963
       O     4.00691  -10.10134   -3.98737
      H1     3.32525   -9.46846   -3.75252
       H     2.88399  -17.75344   -6.70446
       O     3.64008  -18.20631   -6.31639
      H1     4.29411  -17.46015   -6.16048

