87
frame 10 | Written by MDAnalysis XYZWriter (release 2.4.3)
       H    10.58840    5.45070   17.87506
       O    11.07127    4.86597   18.49596
      H1    11.89825    4.70678   18.04752
       H     7.26903    9.06484   10.59184
       O     7.10562    8.11929   10.53292
      H1     6.86948    7.86647    9.61966
       H     3.10940   10.38474   17.52593
       O     2.87802    9.47093   17.39863
      H1     3.72629    9.04938   17.27660
       H     5.30411   12.58193   14.58282
       O     5.78345   11.92353   15.20804
      H1     5.92571   11.05289   14.73096
       H     9.85293    8.92819   19.52459
       O     8.98527    8.72124   19.18696
      H1     8.69761    8.06829   19.81151
       H     9.75996    3.62383   18.27480
       O     8.94715    3.09780   18.41265
      H1     9.24207    2.49470   19.11202
       H     8.49798    2.34138   16.88914
       O     8.43202    2.00534   15.92819
      H1     7.50022    2.23210   15.66012
       H     5.83848    5.13515   17.93491
       O     5.50990    5.44229   17.02232
      H1     4.89983    4.75379   16.72375
       H     8.87873   10.96465   17.56670
       O     8.30156   10.29980   17.17667
      H1     8.47464    9.57950   17.80601
       H    10.34173    3.02561   15.65620
       O    11.26136    2.88301   15.56600
      H1    11.51370    3.30173   14.75837
       H     4.09933    5.51640   19.00447
       O     3.29133    5.73404   19.44247
      H1     3.15595    6.67166   19.40989
       H     3.76700    6.41248   14.24836
       O     4.14178    7.20876   14.59437
      H1     3.30705    7.66340   14.77367
       H     9.23877    6.74910   16.32384
       O    10.12572    6.46325   16.12985
      H1     9.97457    5.93176   15.32850
       H     1.80231    5.39071   13.50414
       O     2.61804    4.97675   13.83912
      H1     2.25028    4.61122   14.66480
       H     6.85814    6.29019   16.14200
       O     7.55874    6.58545   15.57084
      H1     7.28113    6.20744   14.70744
       H     5.28768    7.39402   13.14678
       O     5.58930    6.96966   12.32526
      H1     6.27524    7.48169   11.82085
       H     6.37555    1.40499   14.30463
       O     6.09304    2.31253   14.41796
      H1     5.24683    2.33921   14.88331
       H     6.28872    4.17681   14.09856
       O     6.67232    4.87677   13.53678
      H1     6.09367    5.61450   13.23545
       H    10.14343    6.79398   10.97175
       O     9.87875    7.57260   10.41836
      H1     8.95428    7.70847   10.60237
       H     6.65399   11.98280   19.84906
       O     6.41564   11.35781   19.18068
      H1     7.19030   11.19777   18.57628
       H     2.99228    2.47385   15.91248
       O     3.86783    2.79795   16.15889
      H1     3.94258    2.83504   17.06940
       H     3.57649    8.94603   11.87511
       O     4.20852    9.57311   11.68071
      H1     4.85003    9.60272   12.42932
       H     9.77512    5.07144   13.04251
       O     9.45435    4.78655   13.93051
      H1     8.51718    4.67010   13.80105
       H     5.17535    7.28935   17.27429
       O     5.29353    8.18077   17.65323
      H1     6.14908    8.53259   17.34891
       H    11.99872    6.98939   16.00351
       O    12.92636    6.95583   15.84820
      H1    13.10408    7.78035   15.35004
       H    10.91958    4.75930   11.03051
       O    10.91568    5.44543   11.70226
      H1    11.78473    5.70972   11.95955
       H     6.86028    8.84289   14.73546
       O     6.48928    9.51135   14.14192
      H1     7.10351    9.49204   13.42654
       H    11.26661   10.83161   15.91869
       O    10.42906   10.75669   15.48196
      H1     9.72425   10.45417   16.13943
       H     6.81606    4.81932   10.33265
       O     7.22170    4.05725   10.77593
      H1     7.07162    4.25967   11.71669

