87
frame 11 | Written by MDAnalysis XYZWriter (release 2.4.3)
       H    -8.74220   18.16139   -7.17378
       O    -8.73523   18.24618   -6.19167
      H1    -9.60652   18.54340   -5.90535
       H    -8.17257   11.48904  -12.87574
       O    -8.66981   12.24787  -13.26863
      H1    -9.22857   12.48120  -12.48103
       H    -5.22762   14.10963  -10.58786
       O    -4.70455   13.33963  -10.65765
      H1    -4.60974   13.07677  -11.54981
       H    -4.12234   18.26297  -13.60372
       O    -4.59611   19.13040  -13.76499
      H1    -5.41358   19.01146  -13.31793
       H   -11.69406   19.44403   -4.73789
       O   -11.42153   18.78694   -5.33667
      H1   -11.78271   19.06600   -6.16219
       H   -10.61683   16.38424  -10.09415
       O   -11.25247   16.64852  -10.80873
      H1   -10.68428   17.26586  -11.35767
       H   -11.40874   15.68869   -4.37315
       O   -12.21774   16.22210   -4.53334
      H1   -11.87156   17.13773   -4.57871
       H    -7.44336   15.31626  -11.40725
       O    -8.23292   15.84126  -11.30623
      H1    -8.20715   16.24757  -10.43341
       H    -9.76513   18.11026  -13.37987
       O    -9.50970   17.98414  -12.46262
      H1    -9.00570   17.17613  -12.52491
       H    -8.69326   18.51764   -9.68470
       O    -8.46658   17.93805   -8.94067
      H1    -9.14170   17.24402   -8.94663
       H    -9.97180   15.71218   -7.53246
       O   -10.47139   15.99788   -8.29324
      H1   -11.35209   16.06367   -7.95348
       H    -8.70287   16.45368   -5.96667
       O    -8.81071   15.46312   -5.81753
      H1    -7.94258   15.07784   -5.89958
       H    -6.29748   19.26573  -11.37932
       O    -7.04569   19.44007  -11.99578
      H1    -7.53441   18.54407  -12.12057
       H    -6.58720   16.66602  -14.70879
       O    -7.27199   16.54383  -14.07176
      H1    -7.94100   16.06792  -14.56356
       H    -4.06720   15.69177   -5.53801
       O    -4.75313   16.30868   -5.24931
      H1    -4.52101   16.34040   -4.27523
       H   -15.00494   15.98548   -9.92975
       O   -15.01028   15.43823  -10.71470
      H1   -14.12012   15.21800  -10.92155
       H    -6.50585   15.18480   -8.67277
       O    -6.10525   15.45064   -9.55146
      H1    -5.44781   16.09694   -9.14285
       H    -8.86904   16.07044   -4.22206
       O    -8.97600   16.31939   -3.27198
      H1    -8.39292   17.14940   -3.15738
       H    -6.47804   13.62107   -6.70106
       O    -6.32564   14.59758   -6.81568
      H1    -5.82010   14.91303   -6.05640
       H   -13.69840   16.37013   -7.29785
       O   -12.89848   15.80095   -7.15998
      H1   -12.49946   16.02099   -6.29553
       H   -10.09461   12.83345   -9.52076
       O   -10.05029   12.57832   -8.52505
      H1   -10.94326   12.75938   -8.20612
       H    -7.57553   13.59394  -13.04603
       O    -6.74309   14.15161  -13.02748
      H1    -6.90959   15.04297  -13.40657
       H   -13.20298   12.80842   -8.32399
       O   -12.63597   13.10017   -7.61510
      H1   -12.82001   14.07644   -7.50792
       H    -7.03762   11.66545   -7.57517
       O    -7.69606   12.25196   -7.15149
      H1    -8.22865   12.53165   -7.92345
       H    -4.02684   19.45628   -4.82883
       O    -3.73371   18.81793   -5.48794
      H1    -4.28964   18.00933   -5.43074
       H   -11.11144   19.98845  -10.55964
       O   -11.75454   19.37439  -10.19702
      H1   -11.52102   18.60193  -10.67256
       H   -12.34533   14.33733  -12.98427
       O   -12.42717   14.13856  -12.02598
      H1   -12.24709   14.95108  -11.50831
       H   -10.93384   13.74230  -11.60468
       O   -10.07547   13.59514  -11.19477
      H1    -9.56993   14.43724  -11.29012
       H    -4.68484   18.54364   -9.12016
       O    -4.42766   17.64425   -8.77116
      H1    -4.80309   17.56654   -7.91045

