87
frame 0 | Written by MDAnalysis XYZWriter (release 2.4.3)
       H    11.14061  -18.90546   11.12937
       O    11.14746  -19.77547   10.67250
      H1    11.97900  -19.92136   10.19615
       H     7.84228  -17.81469   11.93522
       O     7.43271  -18.42469   11.31652
      H1     7.69595  -19.30844   11.57462
       H     4.55237  -14.18654   11.23734
       O     5.31617  -14.73835   11.49866
      H1     5.75434  -14.80846   10.61961
       H    10.29524  -16.54929   12.43570
       O    10.78405  -17.37490   12.19883
      H1    10.53520  -17.97594   12.94578
       H     3.41683  -20.19296    8.98378
       O     4.01831  -19.46238    9.24805
      H1     3.61175  -18.65766    8.97164
       H     7.32526  -17.12680    8.34727
       O     7.92409  -16.95258    9.06551
      H1     7.69418  -17.56015    9.77376
       H     3.27189  -17.43575    7.07798
       O     3.40431  -17.24695    8.01469
      H1     2.82311  -16.51223    8.28742
       H    -0.26776  -18.22130    8.36226
       O    -0.17220  -17.26063    8.22140
      H1     0.50293  -17.02192    8.81217
       H     7.90801  -16.76078   15.43343
       O     8.21040  -16.20751   16.18926
      H1     7.54429  -15.53448   16.31074
       H    10.75978  -17.53837    7.50470
       O     9.89021  -17.98908    7.62608
      H1     9.35932  -17.52224    8.28784
       H     3.93698  -17.13398    5.16227
       O     3.50258  -17.97998    5.11213
      H1     3.20974  -17.98102    4.20364
       H     7.28550  -12.63144   12.74099
       O     7.59861  -13.49890   12.39997
      H1     6.77809  -13.90912   12.23436
       H     2.25503  -18.54754   12.39586
       O     2.64667  -17.90478   11.87275
      H1     3.49831  -18.32730   11.71743
       H     9.31238  -19.47753   15.01207
       O     9.98636  -18.96088   14.57210
      H1    10.19278  -18.27569   15.17993
       H    -0.89585  -19.61041   11.74387
       O    -0.05876  -19.56272   11.32788
      H1     0.08224  -18.61275   11.26833
       H    -0.12865  -17.31913    6.59037
       O    -0.06823  -17.51728    5.60120
      H1    -0.03838  -16.63717    5.23317
       H     1.33501  -15.16194   13.75339
       O     1.47126  -14.23391   13.49456
      H1     0.54459  -14.00822   13.19000
       H     2.50157  -17.23555   16.03182
       O     2.50754  -16.38086   15.55369
      H1     3.30154  -16.53321   14.96144
       H     1.98510  -15.15947   10.44572
       O     1.66437  -16.07753   10.25493
      H1     2.13336  -16.62711   10.89517
       H     3.27259  -13.93911   14.26871
       O     4.03961  -13.67419   14.82136
      H1     3.74424  -13.04464   15.47168
       H     6.24591  -18.42222    6.88823
       O     6.40008  -17.45893    6.92151
      H1     7.08285  -17.41185    6.25478
       H     6.56177  -14.28266    8.39698
       O     6.87555  -14.45387    9.28917
      H1     7.47199  -15.18853    9.03949
       H     6.60975  -18.62868   14.38167
       O     6.94934  -17.72619   14.20269
      H1     6.13292  -17.23458   13.92980
       H    -0.10502  -19.20310   14.99582
       O    -0.94920  -19.25360   15.43289
      H1    -1.22725  -18.29909   15.48397
       H     1.49379  -13.24071    9.92951
       O     2.38592  -13.52154   10.23204
      H1     2.86555  -13.45097    9.40352
       H     5.64860  -19.23583   11.67164
       O     4.75050  -19.59376   11.84223
      H1     4.39773  -19.70761   10.92967
       H     4.72744  -15.61551   13.18838
       O     4.50147  -16.45253   13.64684
      H1     3.97410  -16.99187   13.06316
       H     0.23677  -15.45398   10.88048
       O    -0.54047  -15.01612   11.25474
      H1    -0.14355  -14.14244   11.40614
       H     6.88112  -13.69685    6.22756
       O     6.15933  -14.12735    6.70126
      H1     6.18047  -15.05782    6.52981

