87
frame 11 | Written by MDAnalysis XYZWriter (release 2.4.3)
       H    -4.10555    3.89722    1.47813
       O    -4.03333    4.42396    0.63560
      H1    -3.37896    3.96126    0.13688
       H    -7.17386    6.37572   -2.07648
       O    -6.29590    6.22873   -1.69194
      H1    -6.52179    5.58259   -1.02787
       H    -8.68926   -1.83968    2.42440
       O    -7.76982   -1.56125    2.47750
      H1    -7.78817   -0.61701    2.23910
       H    -4.77116   -1.80491    7.09988
       O    -4.22329   -1.42752    6.37027
      H1    -3.50870   -0.97867    6.87386
       H   -10.05036    4.04529    5.11737
       O    -9.84089    4.64630    4.35550
      H1    -8.92451    4.47925    4.00617
       H    -8.77487    5.12512    1.97526
       O    -8.81368    5.84068    1.31446
      H1    -9.00404    5.32401    0.53798
       H    -5.81025    7.13255    1.99895
       O    -5.15612    6.58639    2.47508
      H1    -4.35034    7.04397    2.63422
       H   -10.04318    0.57941    1.82701
       O    -9.54320    1.23931    1.32817
      H1    -9.52841    0.95377    0.39317
       H    -1.87320    3.09232    5.92880
       O    -2.54925    3.13969    5.27613
      H1    -2.27239    2.83200    4.42317
       H    -1.25473    6.32254    2.44059
       O    -1.55418    6.16274    1.53420
      H1    -2.28802    5.57157    1.46513
       H    -5.38285    2.07989    2.44773
       O    -4.59317    2.68235    2.54554
      H1    -3.83310    2.08185    2.62549
       H    -5.11885   -1.72087    4.62812
       O    -5.32658   -2.16241    3.79054
      H1    -6.02848   -1.62379    3.41154
       H    -3.62139    3.44632   -1.29332
       O    -2.65024    3.31488   -1.31748
      H1    -2.13270    4.05669   -1.61619
       H    -7.21257    0.39832    5.78655
       O    -6.48127    0.75738    5.28267
      H1    -6.17020    1.56748    5.67584
       H    -2.61665    5.10314    5.72670
       O    -2.40680    6.00080    5.80487
      H1    -2.88447    6.27362    6.58856
       H    -5.40392    0.19085   -0.52682
       O    -5.32970   -0.70541   -0.96439
      H1    -6.22576   -1.08982   -0.90960
       H    -5.10642    4.16095    7.22561
       O    -5.31420    4.95694    7.70473
      H1    -5.38417    5.63980    7.02691
       H    -7.04663    1.14061    3.32776
       O    -6.79301    1.29981    2.35187
      H1    -7.57802    1.39725    1.85958
       H    -8.04402   -2.42875   -1.43993
       O    -7.89941   -1.69263   -0.88502
      H1    -7.97367   -1.90505    0.02701
       H   -10.70152    3.80995    2.90291
       O   -11.06237    3.35349    2.11405
      H1   -10.46788    2.62380    1.92159
       H    -1.88255   -1.58375    1.66660
       O    -0.99153   -1.52468    1.28342
      H1    -0.70336   -2.45890    1.17708
       H    -1.55698    1.02917    2.25887
       O    -2.16516    1.44109    2.89111
      H1    -2.08275    1.03802    3.74156
       H    -7.34751    5.13836    0.48169
       O    -6.77737    4.49153    0.07157
      H1    -5.93187    4.67192    0.45447
       H    -5.34352    3.70744    4.66591
       O    -5.28404    3.18587    5.51192
      H1    -4.35792    2.96084    5.40535
       H    -4.38600   -1.13484    2.06582
       O    -3.80597   -1.38042    1.33964
      H1    -4.18814   -0.89017    0.54368
       H    -6.51197    4.53710    2.83994
       O    -7.12395    4.50532    3.58274
      H1    -7.29051    5.39243    3.88412
       H    -1.30075    0.57891   -0.45016
       O    -1.16327    1.40975    0.08383
      H1    -1.75032    2.14466   -0.21304
       H    -5.76546    2.56898   -2.28828
       O    -5.52096    2.23898   -1.37277
      H1    -5.99337    2.85443   -0.84404
       H    -8.98355   -0.03883   -1.37658
       O    -9.33457    0.83343   -1.32813
      H1    -8.55837    1.37536   -1.55401

