87
frame 11 | Written by MDAnalysis XYZWriter (release 2.4.3)
       H     7.94439  -17.46030   14.16937
       O     7.79865  -17.08068   13.29660
      H1     6.86646  -16.98814   13.17776
       H     7.72349  -17.75112   16.50777
       O     8.39491  -17.65614   15.78715
      H1     8.46895  -16.67273   15.71167
       H     9.19192  -12.91538   13.07083
       O     9.89097  -13.44372   12.66694
      H1     9.94901  -14.23861   13.20231
       H     8.50327  -14.67845   17.54597
       O     8.85901  -14.74254   18.41114
      H1     9.57838  -14.13617   18.34624
       H    12.82655  -14.44368   15.03950
       O    12.01838  -14.16586   15.47593
      H1    11.24257  -14.48108   14.91812
       H     4.85781  -15.18084   19.31648
       O     5.78554  -15.25753   19.60876
      H1     6.20053  -14.43092   19.51568
       H    11.86141  -18.16149   13.30923
       O    11.89763  -18.66787   14.13958
      H1    12.49210  -19.41994   13.92790
       H     9.98989  -11.79371   19.52693
       O    10.21339  -12.17196   18.68268
      H1    11.07470  -12.49362   18.84448
       H     5.78876  -11.55187   19.79216
       O     6.06046  -11.67120   18.82846
      H1     6.60472  -10.81653   18.71319
       H     5.24323  -19.63812   15.70814
       O     5.21012  -19.91001   14.78351
      H1     5.08928  -19.09290   14.28683
       H     5.27758  -11.22708   15.11893
       O     5.40912  -11.23667   14.15195
      H1     4.86150  -10.52803   13.90975
       H     8.64263  -15.72492   14.14029
       O     9.00540  -15.23347   14.90999
      H1     8.28701  -14.54223   15.07174
       H     0.56068  -16.60877   19.38368
       O     0.75332  -16.13665   18.59138
      H1     1.26784  -16.65285   17.94810
       H    10.34651  -18.36785   17.82313
       O    10.10192  -17.90466   18.62164
      H1     9.72733  -17.08980   18.38479
       H     3.92166  -10.37566   16.77449
       O     4.23548  -11.30501   16.74098
      H1     4.85066  -11.40402   17.53397
       H     2.38216  -14.92751   19.32059
       O     3.18587  -14.56813   18.94001
      H1     2.82084  -14.06741   18.21831
       H     6.27024  -16.85044   18.58133
       O     6.39290  -17.18168   17.68978
      H1     5.64670  -16.74598   17.25713
       H     9.32822  -19.48565   16.30634
       O    10.31070  -19.50066   16.38943
      H1    10.58601  -19.03038   15.59903
       H     1.39632  -13.86896   14.07173
       O     0.74903  -13.88116   14.76927
      H1     0.68429  -14.85632   14.97000
       H     2.64092  -17.66660   17.02561
       O     2.35203  -16.86526   16.62193
      H1     1.72429  -17.09274   15.93018
       H     4.13843  -19.95432   18.15323
       O     3.63889  -19.14610   18.19835
      H1     2.75712  -19.50407   18.34902
       H     4.22058  -13.04994   13.86086
       O     3.80391  -13.92404   13.71623
      H1     4.30413  -14.38411   13.05211
       H     6.75504  -13.06893   17.17080
       O     6.77910  -13.86731   16.64600
      H1     5.95432  -14.38996   16.75512
       H     8.90988  -11.46854   15.52067
       O     8.38638  -11.83202   14.81907
      H1     7.51570  -11.46923   14.89256
       H     3.79537  -15.87478   16.12561
       O     4.58095  -15.69575   15.62865
      H1     4.38906  -14.96551   15.01971
       H     8.60674  -18.32524   10.36931
       O     7.75864  -17.86053   10.56300
      H1     7.62473  -17.84302   11.53900
       H    13.45106  -18.41101   17.71832
       O    13.14388  -18.68445   18.58668
      H1    12.38837  -18.13352   18.76288
       H     4.59290  -16.84267   14.40977
       O     4.97907  -17.44025   13.67429
      H1     4.20527  -17.47738   13.14494
       H     1.72887  -13.09812   16.21367
       O     1.95079  -12.62942   17.01037
      H1     2.81401  -12.20203   16.84624

