87
frame 11 | Written by MDAnalysis XYZWriter (release 2.4.3)
       H    18.80830    4.30838   -7.13786
       O    19.31748    3.48077   -7.10942
      H1    19.01197    2.90231   -7.79317
       H    13.70547    0.96049  -14.91683
       O    14.27830    0.43998  -15.50833
      H1    15.18688    0.78519  -15.37260
       H    15.23898    7.90154   -8.01411
       O    14.39622    8.00580   -8.46856
      H1    13.94811    8.70755   -8.00024
       H    13.83505    7.36579  -16.06712
       O    14.77502    7.63542  -16.13258
      H1    15.30202    6.79722  -16.07147
       H    13.01923    4.08227  -11.37339
       O    13.97649    4.31302  -11.45556
      H1    14.24597    4.05310  -12.35245
       H    19.40028   10.10584   -9.73519
       O    18.99550    9.36891  -10.26613
      H1    18.03767    9.46873  -10.10137
       H    17.35433    0.39687  -14.79297
       O    16.92712    1.11979  -15.27346
      H1    17.00121    0.88691  -16.20925
       H    17.28834   10.87509  -15.04531
       O    17.84640   11.62956  -15.10844
      H1    18.12744   11.50353  -15.97868
       H    14.24773    7.76144  -13.21013
       O    13.34570    7.99427  -12.97281
      H1    13.23820    7.81764  -12.05138
       H    15.60373    8.94477  -15.13679
       O    16.01041    9.50519  -14.45766
      H1    15.31357   10.12366  -14.16848
       H    19.08250   -0.17416  -13.79591
       O    18.27864   -0.67396  -13.88543
      H1    18.60087   -1.29475  -14.53567
       H    18.84544   11.09921  -11.11087
       O    18.69855   12.03976  -11.08410
      H1    19.43348   12.46651  -11.57249
       H    19.52274    0.89795   -8.91316
       O    19.77283    1.66651   -9.42518
      H1    18.99067    1.71992   -9.98899
       H    18.59513    5.19579  -11.57075
       O    19.55029    4.96657  -11.65733
      H1    19.75922    4.68581  -12.55241
       H    16.12499    8.56965  -11.73026
       O    16.28263    7.80693  -12.31374
      H1    16.50022    8.16816  -13.18330
       H    16.94178    4.68648  -15.19893
       O    17.08342    3.98443  -14.52863
      H1    17.09099    3.12640  -14.97247
       H    13.18274    2.63270  -14.51271
       O    12.96921    1.97722  -13.82583
      H1    13.77479    1.94564  -13.34552
       H    17.29281    2.93597  -11.23485
       O    17.53704    2.03484  -11.51132
      H1    16.75182    1.65803  -11.91909
       H    13.84949    3.29906  -16.49185
       O    13.29169    3.63017  -15.80244
      H1    12.43448    3.38143  -16.18291
       H    15.58776    9.11725   -9.73280
       O    16.21893    9.74842  -10.21382
      H1    15.79775   10.64841  -10.12484
       H    17.12224    5.85649   -7.10820
       O    18.01889    6.17018   -6.76729
      H1    18.49541    6.63335   -7.49672
       H    19.32853    7.72692  -16.68945
       O    18.47746    8.05214  -16.44569
      H1    18.41184    8.86557  -16.95080
       H    15.77815    1.98934   -8.36902
       O    16.06969    2.10917   -7.38788
      H1    16.72171    1.41284   -7.15993
       H    16.08897    3.81430   -7.21361
       O    15.80047    4.75001   -7.29246
      H1    14.93246    4.73925   -7.74286
       H    15.54291   -0.11076  -11.96733
       O    15.21642    0.73317  -12.32056
      H1    14.77404    1.17943  -11.60734
       H    17.13547    6.59671  -16.40889
       O    16.57813    5.79900  -16.34034
      H1    16.44717    5.40688  -17.26034
       H    13.76314    1.79946   -9.43449
       O    14.62196    2.05973   -9.90868
      H1    14.38742    2.93176  -10.22171
       H    13.81521    6.33703   -8.67746
       O    13.53474    5.44175   -8.78177
      H1    13.70385    5.07543   -9.65366
       H    16.58764    5.99399  -11.59923
       O    16.93870    5.06351  -11.58534
      H1    17.18037    4.91971  -12.52968

