90
frame 0 | Written by MDAnalysis XYZWriter (release 2.4.3)
       H     4.38885   -1.11861    6.49226
       O     4.45523   -1.67097    5.67524
      H1     3.61063   -2.18716    5.58331
       H     0.50935   -3.87328    5.67724
       O     1.25591   -4.52676    5.65572
      H1     1.54481   -4.65269    6.61258
       H     4.07890    0.13038    8.68855
       O     4.33021    0.13253    7.72778
      H1     4.39429    1.08608    7.68329
       H     2.25678    0.47711   10.02126
       O     3.12406    0.14094   10.11129
      H1     3.05159   -0.78566    9.88814
       H    10.68865   -1.75063    6.04047
       O    10.41561   -1.64338    6.92298
      H1     9.54940   -1.28354    6.73898
       H     6.63332   -1.67283   11.39754
       O     6.25345   -1.78145   10.53954
      H1     6.52561   -2.72014   10.39590
       H     4.33916   -6.37130    9.20218
       O     3.69322   -6.29468    9.93028
      H1     4.10162   -5.68050   10.58029
       H     5.95251   -2.96804    5.37844
       O     6.85472   -3.26080    5.44367
      H1     6.93111   -3.92695    4.69132
       H     5.47354   -7.50380   10.66530
       O     5.54832   -7.72206   11.58942
      H1     4.70980   -8.17834   11.80213
       H     5.43714    1.79599    4.83707
       O     5.60935    2.21723    5.68665
      H1     6.46486    1.91194    6.03054
       H     2.41878   -5.51823    8.80998
       O     1.61921   -5.21263    8.33459
      H1     1.42554   -5.99762    7.83571
       H     1.66859   -0.25039   12.67831
       O     1.40488   -0.84354   13.39226
      H1     1.00155   -0.18860   13.93264
       H     9.07642    1.63448    9.76577
       O     8.63177    1.19269   10.51107
      H1     8.09194    0.51497   10.08101
       H     0.87089   -2.20671    8.85272
       O     1.52144   -2.18305    9.56313
      H1     2.32115   -2.49531    9.06443
       H     0.27467   -5.39654    9.70816
       O    -0.64407   -5.46628    9.83905
      H1    -0.95593   -5.24780    8.94492
       H     5.04901    0.78591   13.02865
       O     4.25213    1.19735   12.59737
      H1     4.11469    0.58792   11.85130
       H     6.47578   -5.73395    8.27745
       O     5.88843   -6.51503    8.09395
      H1     6.48631   -7.14130    8.55841
       H     0.55284    1.44970   11.26115
       O     0.59433    0.88813   10.45270
      H1     0.44405    1.62649    9.75734
       H     1.12170   -0.87618    6.87168
       O     1.72467   -1.10332    6.16595
      H1     2.16964   -0.23643    6.02463
       H     7.16470   -3.63508    7.48239
       O     7.52384   -4.29632    8.14285
      H1     8.45448   -4.15853    8.16402
       H     4.99513   -1.28333   13.87504
       O     5.86028   -1.14052   13.43450
      H1     6.56784   -1.21318   14.02632
       H     7.16407   -1.61210    4.32972
       O     7.47319   -0.81790    3.91035
      H1     8.42931   -1.01832    3.83544
       H     6.87970   -6.66507    6.49096
       O     7.57529   -7.18135    6.08675
      H1     7.88959   -6.68281    5.34775
       H     7.12171   -4.86836   12.82511
       O     7.60471   -4.44688   12.09732
      H1     7.75911   -3.55256   12.37820
       H     4.76094   -2.71791    8.58834
       O     3.98121   -3.24824    8.73322
      H1     4.29123   -3.82137    9.45460
       H     1.25206   -4.72397   11.43157
       O     1.29475   -3.81367   11.73684
      H1     1.44286   -3.29846   10.93543
       H     4.08756   -0.20574    2.74846
       O     4.51625    0.21743    3.50443
      H1     4.57084   -0.61042    4.13249
       H     3.08510   -3.82560   11.93900
       O     3.97658   -3.89118   11.60533
      H1     4.38424   -3.26583   12.21048
       H     8.92945    1.14237    6.33745
       O     8.24197    0.44530    6.26996
      H1     7.95380    0.38740    5.30904
       H     2.63881   -9.40662    8.78706
       O     2.31272   -8.47756    8.48645
      H1     2.56447   -7.92711    9.24775

