90
frame 1 | Written by MDAnalysis XYZWriter (release 2.4.3)
       H     4.37944  -16.36421  -10.07738
       O     4.94327  -16.99947  -10.54049
      H1     5.85630  -16.85221  -10.27430
       H    12.20618  -17.23297  -14.74049
       O    12.55477  -16.48730  -15.22928
      H1    11.92583  -15.72497  -14.96494
       H     7.09434  -14.19081  -11.99942
       O     6.38378  -13.62658  -12.37342
      H1     6.27033  -14.05675  -13.22243
       H     8.12491  -17.55347  -10.11194
       O     8.52678  -16.76863  -10.46246
      H1     8.07770  -16.58094  -11.31420
       H     7.88922  -18.04626   -5.00804
       O     7.40671  -17.26034   -5.35771
      H1     7.96764  -16.56873   -5.65731
       H     7.04577  -12.36790  -11.02810
       O     7.60045  -12.36981  -10.24752
      H1     7.33095  -11.64637   -9.72229
       H    11.71161  -12.80069   -8.95290
       O    11.12010  -13.28549   -8.34985
      H1    11.12694  -14.18565   -8.71547
       H    13.63321  -12.22181  -11.05001
       O    13.16021  -12.13326  -10.17451
      H1    13.53119  -11.23812   -9.87199
       H     7.26526  -13.79276   -9.34377
       O     7.10793  -14.65955   -8.93320
      H1     7.71963  -15.31999   -9.28775
       H    13.24782  -19.32885   -8.13065
       O    13.65778  -19.15445   -8.98958
      H1    13.86589  -18.16924   -9.15400
       H    14.05746  -12.74635  -13.43944
       O    14.33597  -13.08097  -12.55754
      H1    15.30382  -12.91029  -12.46542
       H    10.36121  -19.65211   -7.30421
       O    11.26622  -19.32609   -7.20967
      H1    11.25572  -18.63623   -7.91769
       H    11.28842  -18.65995   -5.31845
       O    11.43110  -17.98662   -4.60929
      H1    11.80168  -17.16989   -4.99873
       H    12.15157  -19.62790  -10.44102
       O    11.29556  -19.68400  -10.89426
      H1    11.52030  -19.36317  -11.77838
       H     8.70062  -11.05366   -7.41684
       O     9.44571  -11.36571   -6.98769
      H1     9.89994  -12.02328   -7.53828
       H    11.64277  -15.14727   -6.03082
       O    12.09089  -15.95955   -6.24705
      H1    11.70047  -16.20563   -7.10864
       H    13.51807  -14.77015   -6.23596
       O    14.42817  -14.46470   -6.19821
      H1    14.43660  -13.81161   -5.45813
       H    12.20948  -16.31810   -9.61875
       O    11.40193  -16.05425   -9.14205
      H1    10.71775  -16.46642   -9.67176
       H     7.25122  -19.39912   -9.64316
       O     7.75257  -18.88273   -9.03809
      H1     7.12775  -18.41542   -8.51062
       H    14.65750  -14.09670   -8.07869
       O    14.45778  -14.29781   -8.98859
      H1    13.95448  -13.57612   -9.26637
       H    13.06939  -19.22363  -13.82783
       O    12.20683  -18.85417  -13.68743
      H1    11.67297  -19.44975  -14.20000
       H    11.41319  -13.78082   -4.65579
       O    10.70437  -13.59435   -5.26397
      H1    11.06944  -13.13748   -6.01947
       H    11.97054  -11.22495  -11.09539
       O    11.52934  -10.78366  -11.87435
      H1    12.19599  -10.12219  -12.12216
       H     9.46384  -14.66949  -13.92575
       O     9.32283  -15.28406  -14.61472
      H1     9.84500  -15.01779  -15.34799
       H    12.61844  -14.83922  -11.83212
       O    11.93112  -15.34312  -12.25487
      H1    12.31060  -16.21680  -12.29687
       H    10.32943  -14.23361  -12.22029
       O     9.73044  -13.47945  -12.46840
      H1    10.31988  -12.77112  -12.81826
       H     6.91026  -19.28823  -13.83613
       O     7.42125  -19.28332  -13.04568
      H1     6.79575  -19.47982  -12.29117
       H     7.94568  -14.07581   -6.59951
       O     8.00021  -14.16873   -5.67730
      H1     8.92770  -14.08798   -5.55626
       H     7.93849  -16.24419  -13.85888
       O     7.33287  -16.51263  -13.18296
      H1     7.35666  -17.46025  -13.22019
       H    14.40256  -15.84340   -9.61167
       O    14.28979  -16.68607  -10.10269
      H1    15.09301  -17.04447  -10.56304

