90
frame 0 | Written by MDAnalysis XYZWriter (release 2.4.3)
       H   -15.11438    0.05648   -9.85588
       O   -14.94498    0.99787   -9.66795
      H1   -14.41904    1.21507  -10.47677
       H   -11.56525    7.28470  -10.89575
       O   -10.90685    6.67190  -11.25871
      H1   -10.47922    6.37141  -10.46579
       H    -8.01830    1.00376   -6.05311
       O    -8.82516    1.59565   -6.10251
      H1    -8.53465    2.11472   -6.86185
       H   -13.37067    3.24689  -10.93823
       O   -13.38411    2.35893  -11.31877
      H1   -14.23231    2.47707  -11.78461
       H   -13.32260    4.67752   -7.44458
       O   -13.58158    5.61324   -7.36678
      H1   -13.98226    5.86561   -8.21040
       H    -8.56431    0.98178   -8.65068
       O    -8.69747    0.03901   -8.80357
      H1    -9.07158   -0.22391   -7.92826
       H   -14.60369    2.68756   -6.78685
       O   -13.85300    2.92090   -7.35636
      H1   -14.20907    2.72042   -8.23970
       H   -15.74914    3.32841  -12.99371
       O   -15.66246    2.42574  -12.67867
      H1   -16.45817    2.27390  -12.10237
       H    -6.63011   -1.69347  -10.86875
       O    -7.57799   -1.43210  -11.04835
      H1    -7.77649   -0.98918  -10.21949
       H   -11.67064   -0.05109  -16.15898
       O   -11.45998   -0.11441  -17.11207
      H1   -12.20177   -0.56957  -17.40965
       H    -9.94827    0.24476   -9.92736
       O   -10.59538    0.52047  -10.64013
      H1   -11.40526    0.53262  -10.08210
       H    -7.77968   -2.79854  -13.94639
       O    -8.11460   -1.82895  -13.94275
      H1    -7.83807   -1.56189  -13.00711
       H    -7.11184    4.85257  -12.69931
       O    -6.80443    5.72979  -12.97406
      H1    -7.64778    6.22600  -13.16700
       H   -11.56979   -1.84025  -14.17298
       O   -11.99904   -1.11517  -13.73451
      H1   -11.34959   -0.42319  -13.62681
       H   -12.80007   -1.41492  -11.72394
       O   -13.32682   -1.54908  -10.90613
      H1   -12.78057   -2.24924  -10.42472
       H   -13.33592    3.91262  -15.33044
       O   -13.96505    4.33282  -15.94078
      H1   -14.46415    3.58199  -16.30089
       H   -13.54424    7.40583  -12.27589
       O   -13.76697    6.70513  -12.90242
      H1   -12.91707    6.58649  -13.36751
       H    -9.81814   -1.22683   -5.83566
       O   -10.31533   -1.06612   -6.68179
      H1   -10.49108   -0.16724   -6.49440
       H    -8.16846    2.18338  -12.72895
       O    -7.24594    2.56816  -12.58536
      H1    -6.64133    1.99646  -13.15826
       H   -10.66195    1.58338  -16.58818
       O   -10.24041    2.17839  -15.95894
      H1    -9.33460    1.83575  -15.95578
       H   -10.98296    3.76225   -8.98275
       O   -10.28470    3.98229   -9.59714
      H1   -10.53245    3.55689  -10.41887
       H   -11.13947    5.69167  -15.04203
       O   -11.37842    6.39267  -14.43863
      H1   -10.58595    6.64221  -13.93236
       H    -9.33332   -0.40056  -13.80726
       O    -9.63465    0.42472  -13.37327
      H1    -9.48999    0.20177  -12.46650
       H   -12.73260    5.24810  -10.39272
       O   -13.65255    4.92891  -10.43790
      H1   -13.77758    5.17718  -11.36537
       H   -11.32898    1.78779   -7.33082
       O   -11.67248    1.25961   -8.06854
      H1   -12.63495    1.16262   -7.88626
       H    -7.11051    3.02744   -8.91273
       O    -7.96185    2.68468   -8.67131
      H1    -8.60277    3.18638   -9.21834
       H   -13.13883    0.13381  -13.91759
       O   -13.75021    0.80831  -14.23335
      H1   -14.29196    1.07476  -13.49769
       H   -11.09162    2.82774  -12.42622
       O   -10.25160    2.86670  -11.96517
      H1   -10.41794    2.06950  -11.42495
       H   -12.64718    2.40417  -14.34384
       O   -12.21673    3.20584  -14.12172
      H1   -11.32623    2.98204  -14.52186
       H    -4.53548    3.36230  -11.00308
       O    -4.70864    2.61912  -11.58472
      H1    -5.65769    2.57258  -11.72263

