90
frame 1 | Written by MDAnalysis XYZWriter (release 2.4.3)
       H   -14.85398   14.57494    5.61559
       O   -14.19736   15.24230    5.72214
      H1   -13.67888   15.31195    4.90895
       H   -11.55348   10.23152    0.98212
       O   -12.11662   10.85135    1.47512
      H1   -12.64575   11.21632    0.74169
       H   -14.19686   10.05362    6.87720
       O   -15.03917    9.54031    6.85894
      H1   -15.09883    9.27700    7.81500
       H    -9.28518   12.67996    9.20269
       O    -8.81832   11.89572    8.76868
      H1    -9.45011   11.17354    8.95199
       H    -9.84779   17.61856    9.07204
       O    -9.24915   16.85614    9.21498
      H1    -9.80775   16.07089    9.05298
       H   -15.62930   13.40664    3.81914
       O   -16.16396   13.47617    4.59645
      H1   -17.06811   13.70604    4.20359
       H   -10.87724   14.04336    9.68314
       O   -10.31425   14.29412    8.93003
      H1   -10.87705   13.98158    8.23015
       H   -11.54750    9.95194    8.28078
       O   -10.62528    9.91155    8.52588
      H1   -10.21495    9.42676    7.77823
       H    -8.91542   14.69712    3.59900
       O    -8.38379   14.14895    2.92740
      H1    -7.61126   13.92090    3.44887
       H    -6.20711   14.32429    9.11199
       O    -6.65966   14.06930    8.31040
      H1    -6.26420   14.79441    7.71836
       H    -8.71459   16.35109    7.53744
       O    -8.52408   15.68296    6.84497
      H1    -8.26083   14.95937    7.43764
       H    -8.04834    8.63899    3.68031
       O    -9.00655    8.77985    3.57434
      H1    -9.07999    9.67832    3.18693
       H   -10.73626   13.14877   11.59593
       O   -11.57817   13.27335   11.12690
      H1   -11.82532   12.41654   10.69727
       H   -10.01813   12.33923    3.14330
       O   -10.02536   11.33484    3.02550
      H1   -10.88938   11.31047    2.62610
       H    -7.16125   16.95194    6.31740
       O    -6.85691   17.90029    6.19273
      H1    -7.41558   18.36330    6.85527
       H   -12.68339   15.17490    3.07720
       O   -12.24464   15.66701    3.79103
      H1   -12.43533   16.55537    3.61995
       H    -6.64303   12.88385    5.26894
       O    -6.99587   12.02668    4.78881
      H1    -7.98416   11.97275    5.09086
       H   -13.44970   15.84390   10.46475
       O   -12.82793   16.45132   10.09175
      H1   -12.71370   16.93357   10.90997
       H   -12.62784   11.79090    6.49280
       O   -12.70886   10.79356    6.56429
      H1   -12.75824   10.53178    5.60765
       H   -14.43177   18.30179    6.62388
       O   -13.80231   17.98159    5.92966
      H1   -14.04628   17.07155    5.95360
       H   -11.85979    9.76470    3.09942
       O   -12.10828    9.39876    3.95977
      H1   -11.29223    9.00014    4.28296
       H    -9.17155   12.37856    7.09183
       O    -9.46484   12.30768    6.14802
      H1   -10.00750   11.54147    6.18077
       H    -9.60231   15.90484    5.52691
       O    -9.75682   16.19574    4.58002
      H1   -10.69388   16.00479    4.49563
       H   -14.06417   13.32659    2.05372
       O   -14.09715   12.64725    2.73611
      H1   -13.37249   12.08814    2.38151
       H    -8.98354    8.89409    5.39230
       O    -9.04575    8.82671    6.35911
      H1    -8.48696    8.05171    6.55792
       H    -7.86286   18.58004    4.83097
       O    -8.54026   18.74364    4.15578
      H1    -8.94523   17.82402    4.02092
       H   -10.30137   18.67285    5.10635
       O   -11.01824   19.31505    5.19251
      H1   -11.79336   18.83283    5.50593
       H   -12.51719   18.45611    7.59238
       O   -11.90455   18.95989    8.14190
      H1   -11.77292   19.65079    7.49815
       H   -12.61746   14.25202    6.33396
       O   -12.13028   13.50603    6.74035
      H1   -11.25830   13.41971    6.23558
       H   -15.99226   11.54778    4.18238
       O   -16.28343   10.58377    4.14402
      H1   -15.43328   10.17058    4.42948

