90
frame 0 | Written by MDAnalysis XYZWriter (release 2.4.3)
       H    -1.77808    0.46496  -14.07849
       O    -1.47146   -0.04014  -13.27592
      H1    -2.29822    0.06305  -12.73090
       H     1.83367    2.11723   -8.88137
       O     1.15500    2.80149   -8.99998
      H1     0.74068    2.56452   -9.82303
       H    -2.29830    3.69246  -14.08343
       O    -3.22070    3.57310  -13.95825
      H1    -3.25102    3.42561  -12.97698
       H     3.17923    2.23102  -10.74309
       O     3.89635    2.17434  -11.33388
      H1     4.02685    3.04616  -11.72917
       H     4.84127    0.55330  -13.39049
       O     3.86086    0.46858  -13.38848
      H1     3.70910    1.03860  -12.61879
       H     0.74710    3.50734  -13.33669
       O     1.31801    3.43560  -12.50564
      H1     1.03654    2.59567  -12.20013
       H     6.69271    2.09082  -13.85428
       O     6.47838    1.18885  -13.57599
      H1     6.92741    1.16944  -12.73271
       H    -1.24846    4.34116  -10.83622
       O    -1.62192    3.45600  -11.10058
      H1    -2.07064    3.19673  -10.25216
       H     2.52867    1.09923  -14.77446
       O     1.87487    1.68381  -15.14785
      H1     2.06612    2.48320  -14.55701
       H    -0.12116    0.49709  -11.77530
       O    -0.01162    1.25968  -11.17149
      H1    -0.75053    1.83749  -11.34212
       H    -0.82205    4.43749  -18.37216
       O    -1.47447    4.55728  -17.63526
      H1    -1.60347    3.62893  -17.37506
       H     3.79926    2.91794  -19.92565
       O     3.18749    3.18190  -19.19944
      H1     3.36299    2.43576  -18.60465
       H     2.10204    0.32411  -17.64764
       O     2.87641    1.00975  -17.51094
      H1     2.44046    1.58972  -16.91434
       H     2.92341   -2.09034  -12.18819
       O     3.86042   -1.99492  -12.15919
      H1     3.92142   -1.08512  -12.50923
       H     3.09091    8.00035  -16.78571
       O     2.59386    7.26203  -16.37385
      H1     2.41113    7.68351  -15.52218
       H    -3.12943    1.62422  -16.49317
       O    -2.90613    1.34467  -15.52008
      H1    -3.12933    2.20489  -15.10960
       H     7.41328    4.35482  -14.85042
       O     6.89375    4.20304  -14.05054
      H1     7.60554    4.42595  -13.38723
       H     0.30385    5.12497  -16.80920
       O     1.07680    4.84482  -16.28408
      H1     1.56470    5.66594  -16.18853
       H     5.29908    5.40119  -16.58266
       O     4.59817    4.92267  -17.02983
      H1     3.82330    5.47106  -16.69661
       H     4.58906   -2.46128  -13.55179
       O     4.99698   -2.70813  -14.38234
      H1     5.12940   -1.83134  -14.70999
       H    -0.38063    7.19823  -13.86172
       O    -0.26751    6.50902  -13.23965
      H1     0.54849    6.70877  -12.73448
       H     5.38103    2.75592  -16.91279
       O     5.93690    1.97016  -16.88653
      H1     5.57613    1.44625  -16.16709
       H     4.71398    5.80370  -12.33590
       O     4.59407    4.86836  -12.15223
      H1     5.08270    4.49953  -12.93147
       H     1.67966    5.50815  -11.89676
       O     1.99882    6.38484  -11.60676
      H1     2.97857    6.13126  -11.55546
       H    -0.10240    4.12961  -15.20299
       O    -0.47823    3.87552  -14.34835
      H1    -0.44864    4.71061  -13.80585
       H     0.01632    1.84470  -15.84241
       O    -0.58181    2.03513  -16.61139
      H1    -1.39814    1.60523  -16.24727
       H     4.25833   -0.32005  -16.60925
       O     5.03262   -0.61869  -16.20509
      H1     5.24362   -1.46313  -16.69283
       H    -0.09825    0.09517  -16.48988
       O     0.27060   -0.72545  -16.83300
      H1    -0.27483   -0.96005  -17.61621
       H     1.34817    4.14806  -19.08048
       O     0.66959    4.78460  -19.33615
      H1     1.18580    5.61156  -19.37037
       H     1.50843   -3.04671  -14.68000
       O     1.43282   -2.32053  -13.97563
      H1     1.23503   -1.58943  -14.56353

