90
frame 0 | Written by MDAnalysis XYZWriter (release 2.4.3)
       H    -9.52738   -6.05599  -18.93862
       O    -9.87441   -6.97642  -18.76366
      H1    -9.69263   -7.29539  -19.71178
       H    -9.02446  -13.09917  -14.46935
       O    -8.45022  -13.46220  -15.17165
      H1    -8.21632  -12.69277  -15.69952
       H   -10.25477   -9.81760  -16.40597
       O    -9.67877   -9.42219  -15.78756
      H1    -9.30045  -10.25798  -15.35428
       H   -14.83315   -2.86833  -17.99375
       O   -15.54620   -3.58375  -17.85625
      H1   -15.02047   -4.33735  -18.24975
       H   -12.34711  -11.07150  -18.80940
       O   -12.87453  -11.36713  -19.56989
      H1   -13.60964  -10.71784  -19.51936
       H   -17.20996   -7.88367  -17.60668
       O   -17.21033   -6.92425  -17.49855
      H1   -16.84263   -6.85449  -16.58047
       H   -10.77982  -12.09717  -17.35960
       O   -10.68173  -11.23077  -17.83777
      H1   -10.07751  -11.48304  -18.55081
       H   -17.89468  -13.26030  -15.29889
       O   -17.13315  -13.71609  -14.95695
      H1   -16.90263  -14.32382  -15.68826
       H   -16.01397  -12.12714  -15.27548
       O   -15.35443  -11.41334  -15.41131
      H1   -15.55957  -10.76928  -14.72964
       H    -9.65700  -12.18080  -13.01567
       O   -10.37684  -12.63764  -13.51147
      H1   -11.08108  -11.96445  -13.55149
       H   -16.66839   -9.11985  -13.22944
       O   -15.76587   -8.96597  -13.58842
      H1   -15.53346   -8.23850  -13.00525
       H   -17.55701  -12.07942  -19.72915
       O   -17.46491  -11.86894  -18.78802
      H1   -18.05548  -12.54937  -18.38082
       H    -9.67571  -13.93288  -16.61592
       O   -10.14404  -13.88610  -17.51552
      H1   -10.98231  -14.34149  -17.31925
       H   -12.53040  -15.28112  -16.31666
       O   -12.70529  -15.69569  -17.17473
      H1   -13.56016  -15.24371  -17.42392
       H   -11.77987   -8.82856  -13.83852
       O   -11.64863   -8.07072  -14.45812
      H1   -10.92688   -8.46501  -14.94350
       H   -16.94935  -10.15384  -19.02021
       O   -16.92761   -9.19813  -19.08815
      H1   -15.93657   -9.12898  -18.95975
       H    -8.46398   -7.63361  -17.74879
       O    -7.65121   -7.98199  -17.34703
      H1    -8.04445   -8.27544  -16.52082
       H   -13.34283   -8.83909  -18.72294
       O   -14.22034   -9.16206  -18.48986
      H1   -14.09435   -9.24279  -17.52838
       H    -6.72861  -10.73122  -16.91055
       O    -7.50363  -11.29136  -17.05246
      H1    -7.83468  -10.94258  -17.91125
       H    -7.95826   -9.26531  -18.69079
       O    -8.21613   -9.86274  -19.46695
      H1    -7.43635  -10.45883  -19.56095
       H   -18.15275  -10.24583  -15.73435
       O   -18.60568  -10.62512  -16.50129
      H1   -17.92273  -10.92871  -17.09412
       H   -15.43555   -6.04667  -15.15352
       O   -16.28948   -6.47022  -14.96486
      H1   -15.88435   -7.33068  -14.71053
       H   -13.20502  -12.80000  -15.37850
       O   -12.33010  -13.13406  -15.64280
      H1   -12.00259  -13.52877  -14.81534
       H   -15.43535   -6.66250  -18.35523
       O   -14.84346   -5.98050  -18.83078
      H1   -13.90951   -6.21369  -18.62369
       H   -14.10913  -12.94370  -18.91343
       O   -14.66389  -13.70796  -18.92612
      H1   -15.34350  -13.51951  -18.30717
       H   -11.25919  -16.65742  -18.53044
       O   -10.62114  -16.70866  -19.27369
      H1   -11.25850  -16.74719  -19.98320
       H   -12.88872   -5.24786  -15.42450
       O   -13.44681   -5.88211  -14.92134
      H1   -12.95634   -6.68616  -14.94738
       H   -16.35129  -16.40630  -17.14485
       O   -15.90376  -15.64866  -16.71388
      H1   -15.15237  -16.18409  -16.35886
       H   -18.80095  -14.44198  -17.89061
       O   -18.81983  -13.70906  -17.23127
      H1   -19.67137  -13.24901  -17.41271
       H   -12.40805   -5.85535  -17.64410
       O   -12.34992   -6.57420  -18.29688
      H1   -11.43160   -6.71955  -18.52142

