90
frame 0 | Written by MDAnalysis XYZWriter (release 2.4.3)
       H    -1.66036   13.46912   -1.41325
       O    -1.49764   13.63034   -0.45695
      H1    -1.81445   14.53276   -0.30974
       H    -1.65204   18.30597   -0.90975
       O    -1.11213   19.13929   -0.76542
      H1    -0.98512   19.36789   -1.69213
       H    -5.18348   16.74913   -5.31194
       O    -4.26738   16.71518   -5.23407
      H1    -4.25876   16.28184   -4.33952
       H     3.36064   15.86587   -1.97497
       O     3.78138   16.73849   -2.21938
      H1     3.13965   17.08116   -2.90283
       H     1.98371   17.82151   -1.17593
       O     1.84421   18.11158   -0.26451
      H1     1.07068   18.65064   -0.45348
       H     4.31460   11.72396   -1.14290
       O     3.48641   11.83967   -1.63650
      H1     2.92726   11.12456   -1.38657
       H    -3.02078   16.46768   -0.61860
       O    -2.18939   16.71851   -1.07740
      H1    -2.29627   16.27227   -1.90564
       H    -3.25282   18.57163   -4.10055
       O    -2.95814   19.37206   -3.70328
      H1    -3.47668   19.42878   -2.89913
       H    -1.35576   17.46236   -7.03369
       O    -0.77573   17.81235   -6.31600
      H1    -0.28893   18.55640   -6.65158
       H    -4.89193   14.40589   -2.59099
       O    -4.09373   14.80579   -3.05661
      H1    -3.68472   14.05826   -3.50892
       H     1.46855   15.66052   -6.91072
       O     0.88273   16.00725   -7.56420
      H1     0.39408   16.65283   -7.05694
       H     2.85546   13.51724   -1.63701
       O     2.37053   14.37819   -1.55982
      H1     2.11691   14.30260   -0.63663
       H     1.33443   14.19493   -2.97815
       O     0.83441   14.09996   -3.80696
      H1     0.22639   13.33291   -3.55469
       H    -0.49037   11.88592   -8.52437
       O    -1.17302   12.06561   -7.82031
      H1    -0.75672   12.90035   -7.43084
       H     3.11314   16.06815   -5.05740
       O     2.52592   15.46415   -5.55679
      H1     1.93183   15.19050   -4.82106
       H    -2.44499   12.58670   -4.84568
       O    -1.97807   12.64649   -4.03742
      H1    -1.89485   11.69176   -3.89668
       H     2.84875   18.59077    1.48904
       O     2.95219   18.78439    2.44193
      H1     3.89605   18.82696    2.56402
       H    -0.65599   15.14955   -7.08315
       O    -1.27403   14.52749   -6.69019
      H1    -2.01648   14.54918   -7.27891
       H     5.37666   16.39883   -1.93714
       O     6.37492   16.28029   -1.95561
      H1     6.54237   16.91463   -2.73158
       H    -1.19532   16.67021   -4.25938
       O    -0.93346   16.01131   -3.55670
      H1    -0.68542   15.28990   -4.14805
       H     4.60956   18.20390   -0.49212
       O     5.51080   18.15570   -0.12041
      H1     6.00831   17.46239   -0.55910
       H    -5.40440   14.18795   -6.30220
       O    -4.45957   14.24901   -6.62440
      H1    -4.22837   15.06386   -6.13003
       H     0.75442   16.72352   -3.51406
       O     1.44772   17.45781   -3.42074
      H1     1.55096   18.03386   -4.22700
       H     4.79392   18.14594   -4.86595
       O     3.92120   18.08155   -5.30537
      H1     4.21393   18.33458   -6.22051
       H     1.13537   15.24843    1.15392
       O     1.42866   14.31663    1.29075
      H1     2.37234   14.52411    1.42204
       H     0.70438   10.78802   -4.48284
       O     1.10602   11.07046   -3.61666
      H1     1.75418   10.35468   -3.54545
       H     2.90589   13.51210   -5.57689
       O     3.11461   12.55125   -5.72858
      H1     2.49609   12.16422   -4.99711
       H     6.88202   18.44550   -4.94699
       O     6.38414   18.25378   -4.19399
      H1     6.33770   19.13280   -3.79189
       H     1.59692   17.34817   -8.41097
       O     2.06014   18.05589   -8.97802
      H1     1.88148   17.65179   -9.81633
       H     0.38110   16.94334    0.15851
       O    -0.09944   16.45547    0.86057
      H1    -0.96136   16.53164    0.47632

