90
frame 1 | Written by MDAnalysis XYZWriter (release 2.4.3)
       H    -0.57257  -20.07861  -13.38784
       O    -0.66968  -19.14868  -13.46990
      H1     0.30005  -18.90077  -13.41107
       H    -1.75421  -15.27347  -10.45041
       O    -1.99616  -14.93130  -11.31067
      H1    -2.72125  -14.32986  -11.13989
       H     2.10024  -15.52243  -10.05816
       O     1.20665  -15.21045   -9.94111
      H1     1.17771  -15.21753   -8.96532
       H     5.89049  -18.14807   -9.14765
       O     5.88888  -17.69408  -10.08520
      H1     5.77910  -16.82144   -9.74190
       H    -2.35125  -16.09671  -14.38800
       O    -1.40912  -16.02371  -14.76652
      H1    -0.75876  -16.27212  -14.06718
       H     4.10615  -15.23507  -13.92647
       O     4.93326  -15.65598  -13.63607
      H1     5.51559  -14.88868  -13.47223
       H    -1.58460  -10.19556   -8.63449
       O    -1.51735  -10.41166   -9.59102
      H1    -1.79072  -11.32752   -9.48658
       H     2.15569  -13.28227  -11.99512
       O     3.04796  -13.15612  -12.36326
      H1     2.90739  -13.47543  -13.24730
       H     3.62855  -14.20166  -11.12125
       O     4.07396  -15.02492  -10.83642
      H1     4.25747  -15.43377  -11.67474
       H     3.95477  -12.86431   -8.53905
       O     3.08180  -12.65307   -8.10323
      H1     3.40422  -12.34277   -7.22390
       H     1.33608  -16.15620  -13.79425
       O     0.70915  -16.05126  -13.03936
      H1     0.91581  -15.11247  -12.76373
       H     2.54601  -14.50203   -7.34924
       O     2.14438  -15.36273   -7.14886
      H1     1.25185  -15.07259   -6.84662
       H    -0.58264  -13.23452   -5.47535
       O    -0.78367  -12.63299   -4.75475
      H1    -1.05663  -11.79077   -5.17197
       H     5.77839  -13.94250  -11.28517
       O     6.50447  -13.96437  -11.89675
      H1     7.28870  -13.73890  -11.32373
       H    -2.10102  -14.18543  -13.71675
       O    -2.47183  -13.29789  -13.64020
      H1    -1.65855  -12.96056  -13.22224
       H    -0.45925  -17.31562   -9.86761
       O    -0.91763  -17.16393   -9.00687
      H1    -0.23953  -16.61323   -8.51546
       H    -3.04383  -12.44261   -6.71051
       O    -2.46490  -12.95425   -7.27150
      H1    -3.04218  -13.75281   -7.36493
       H     4.19594  -15.20471   -4.65830
       O     3.71106  -16.03350   -4.90566
      H1     3.14374  -15.81943   -5.65518
       H     2.52655  -18.24440  -11.17596
       O     3.36561  -18.48103  -11.58978
      H1     4.02210  -18.24986  -10.91359
       H     0.15747  -18.66231  -11.69271
       O     0.71412  -18.18125  -11.10033
      H1     0.74823  -17.27862  -11.45429
       H     2.38738  -14.30394  -15.72995
       O     2.88874  -13.92409  -15.03150
      H1     3.58502  -13.52982  -15.51252
       H    -0.18045  -12.72329  -12.17132
       O     0.06755  -13.62581  -12.36200
      H1    -0.53530  -14.08784  -11.73910
       H    -0.69234  -15.14109   -5.63216
       O    -0.49548  -14.71578   -6.49601
      H1    -1.28483  -14.19432   -6.69946
       H     4.64093   -9.52419   -9.59706
       O     4.61360  -10.03763   -8.75510
      H1     4.08009  -10.87650   -9.01199
       H     5.96109  -12.01887  -10.26025
       O     5.44187  -12.61661   -9.69281
      H1     6.13418  -13.04332   -9.23940
       H    -0.51545  -10.32197  -13.08992
       O     0.17303  -10.94590  -12.73748
      H1     0.62709  -10.44370  -11.99881
       H    -3.65482  -17.76524  -10.15128
       O    -3.71340  -17.01848   -9.55781
      H1    -2.79935  -16.95281   -9.28219
       H     0.01781  -18.82782   -8.39847
       O     0.51581  -19.27191   -7.68970
      H1     0.93686  -20.05536   -8.13371
       H     4.03961  -11.66206  -11.92046
       O     4.19019  -10.84207  -11.48215
      H1     4.75191  -10.26514  -12.03990
       H    -3.34115  -19.24940  -12.50930
       O    -3.14627  -18.28724  -12.40171
      H1    -2.20825  -18.37245  -12.61246

