90
frame 0 | Written by MDAnalysis XYZWriter (release 2.4.3)
       H   -18.82740  -16.41088    7.08837
       O   -19.80545  -16.18894    7.04443
      H1   -19.76565  -15.35379    7.51022
       H   -17.28578  -17.77955    6.63601
       O   -17.89320  -17.80123    5.95178
      H1   -18.53550  -18.54938    6.02061
       H   -14.55987  -16.29716    5.47416
       O   -14.22799  -16.88512    6.17364
      H1   -13.54304  -16.31474    6.50715
       H   -11.66763  -15.24118    5.73224
       O   -12.29005  -15.02182    6.44338
      H1   -11.83120  -14.22607    6.85603
       H   -15.28475  -18.58270    3.82873
       O   -14.63210  -19.23981    4.17034
      H1   -14.66665  -19.06805    5.14714
       H   -18.15689  -13.93080    6.23999
       O   -18.85961  -13.30745    5.98143
      H1   -18.57123  -12.53246    6.48254
       H   -19.35621   -9.93938    6.15535
       O   -18.59057   -9.86725    6.73171
      H1   -17.87986   -9.50277    6.20161
       H   -17.54784  -11.03811    9.84027
       O   -17.34476  -11.45250    9.00643
      H1   -17.56116  -10.79436    8.36308
       H   -16.84319  -14.62092    9.53685
       O   -15.95333  -14.77864    9.82559
      H1   -15.81439  -15.72676    9.82484
       H   -18.63628  -10.37214   11.73648
       O   -17.78431  -10.85577   11.74382
      H1   -18.09648  -11.62771   12.21267
       H   -17.74501  -17.83004    9.38663
       O   -17.08683  -17.56069    8.77634
      H1   -16.38041  -18.16748    9.07960
       H   -15.42430  -11.71173    9.15635
       O   -14.49785  -11.85520    8.83153
      H1   -14.44150  -12.76845    9.17218
       H   -15.15222  -17.64991   11.55330
       O   -15.06924  -17.10064   12.36418
      H1   -15.99961  -16.77957   12.37855
       H   -17.52864  -10.30022    2.11918
       O   -16.79566  -10.37224    1.52235
      H1   -16.77169  -11.32934    1.29515
       H   -18.46937  -15.38507    9.60157
       O   -18.42704  -14.61848    9.04416
      H1   -19.25810  -14.06051    9.24761
       H   -13.18810  -15.87230   11.45142
       O   -13.16417  -15.55899   10.54456
      H1   -14.00880  -15.00781   10.63317
       H   -14.65373  -14.72789    3.50702
       O   -15.25341  -15.19007    4.14443
      H1   -15.56250  -14.45862    4.80813
       H   -11.34935  -12.25429    6.97959
       O   -11.80909  -12.64834    7.73192
      H1   -12.64397  -12.16525    7.66195
       H   -15.51938  -14.12607    6.91157
       O   -15.88765  -13.53596    6.24347
      H1   -15.62497  -12.63762    6.50273
       H   -16.27678  -11.32857    4.28925
       O   -15.59008  -10.87613    4.79694
      H1   -14.78008  -11.20427    4.38111
       H   -14.79159  -15.39949   13.25245
       O   -14.77691  -14.42072   13.31579
      H1   -15.63301  -14.08047   13.00593
       H   -18.38868  -18.76692   11.76405
       O   -18.91031  -18.39951   11.02992
      H1   -19.61848  -19.07195   10.94155
       H   -17.23497  -16.49779   14.27947
       O   -17.39236  -16.00192   13.40739
      H1   -18.37034  -16.09254   13.33661
       H   -17.62820  -13.39086    3.58911
       O   -17.13606  -12.62261    3.34111
      H1   -16.38387  -13.04317    2.95777
       H   -17.48888  -14.36899   13.47025
       O   -17.36696  -13.38298   13.34661
      H1   -17.90071  -13.08295   14.10191
       H   -14.98415  -19.58406   10.22318
       O   -14.68643  -18.63765   10.27876
      H1   -13.74050  -18.78825   10.52640
       H   -18.77018  -14.98349   -0.34523
       O   -18.64449  -15.93742   -0.12464
      H1   -18.76718  -15.91311    0.82067
       H   -16.16815  -16.65790    3.76181
       O   -16.72546  -17.40535    3.43727
      H1   -17.04293  -17.60802    4.31928
       H   -18.13365  -16.17642    3.02335
       O   -18.73690  -15.39290    3.02020
      H1   -19.36919  -15.69051    3.67756
       H   -18.75078   -7.69474    9.14289
       O   -19.41574   -8.37684    9.24690
      H1   -19.43631   -8.64173    8.33712

