90
frame 0 | Written by MDAnalysis XYZWriter (release 2.4.3)
       H    11.40568  -16.39648   16.24897
       O    11.24730  -16.09314   17.18443
      H1    10.45605  -15.48388   17.13976
       H     9.64424  -14.10609   15.94964
       O     9.00916  -14.53432   16.50428
      H1     8.50462  -13.78131   16.75084
       H     8.91598  -18.65549   13.66975
       O     9.12536  -18.19930   14.51890
      H1     8.31772  -18.41236   14.99414
       H    10.90269  -12.56734   18.73356
       O    10.12410  -12.08865   19.01472
      H1    10.19329  -12.24364   19.98971
       H    15.56831  -18.21075   14.16369
       O    14.72514  -18.70142   13.94536
      H1    14.05644  -18.05337   14.31793
       H    16.21273  -12.81881   17.61511
       O    16.45496  -12.86614   18.53995
      H1    17.16032  -12.14143   18.52025
       H    15.35793  -15.47202   18.03344
       O    15.50113  -15.70861   17.12711
      H1    16.04598  -16.48188   17.29978
       H    11.09608  -15.96877   12.19383
       O    11.49617  -15.58449   12.93751
      H1    12.26603  -15.17691   12.52866
       H    12.64297  -13.61366   15.32082
       O    13.43508  -14.22115   15.30291
      H1    13.26383  -14.78022   16.05559
       H    17.68487  -15.36008   19.38082
       O    18.20355  -14.94488   18.66812
      H1    17.61185  -14.25392   18.40770
       H     9.72377  -13.21731   13.92105
       O    10.44037  -13.67026   14.47045
      H1    10.64502  -14.45652   13.92623
       H     6.22317  -17.84403   15.93828
       O     6.67770  -18.66698   16.13567
      H1     6.02502  -18.90206   16.83294
       H     5.18096  -16.25391   19.02163
       O     5.23596  -16.44007   18.12355
      H1     4.57925  -15.79762   17.75272
       H     9.33718  -19.29709   11.12312
       O     8.71739  -18.96472   11.75980
      H1     7.87480  -19.04895   11.27560
       H    17.55490  -18.23359   17.32188
       O    17.41375  -17.51374   16.65371
      H1    17.78178  -16.84747   17.28434
       H     7.74515  -16.04325   11.68630
       O     6.80469  -15.98969   11.89535
      H1     6.93293  -15.89511   12.84314
       H    15.16827  -15.36581   13.14917
       O    15.75085  -15.30828   13.91024
      H1    15.32109  -15.14178   14.75583
       H     8.34746  -19.29946   16.94034
       O     9.20090  -19.79390   17.11115
      H1     9.92504  -19.19879   17.42997
       H     3.79018  -19.42775   17.04269
       O     4.47034  -19.24016   17.71929
      H1     4.38741  -18.28597   17.95451
       H    11.24512  -17.59668   17.70718
       O    11.38527  -18.46118   18.11413
      H1    10.96557  -18.35496   19.00011
       H    15.75633  -11.54337   16.16745
       O    15.71386  -12.54638   16.00460
      H1    14.71425  -12.78631   15.96080
       H    11.52789   -9.59287   18.42441
       O    11.21326   -9.81127   17.54709
      H1    10.83348  -10.73183   17.68713
       H     9.32353  -17.41081   11.09941
       O     9.43035  -16.37947   11.06530
      H1     9.83102  -16.33675   10.17080
       H     7.43338  -13.34229   18.60211
       O     7.60569  -12.65668   17.94608
      H1     8.42118  -12.21725   18.43169
       H    16.57853  -16.81228   13.75140
       O    17.19828  -17.60430   13.82262
      H1    17.35107  -17.68062   14.78761
       H    12.10913  -14.61605   18.02001
       O    12.16229  -13.63704   18.24037
      H1    12.90984  -13.57535   18.90384
       H     8.23252  -15.60180   17.65507
       O     8.07252  -16.36837   18.28443
      H1     7.15983  -16.61386   18.12713
       H    14.01391  -19.16091   10.45646
       O    13.83445  -18.31706   10.97276
      H1    14.25375  -18.47052   11.78882
       H     7.96969  -15.52415   15.18824
       O     7.42563  -16.13827   14.62332
      H1     7.98642  -16.90231   14.31122
       H    12.05101  -16.71754   14.19188
       O    12.38659  -17.30316   14.90684
      H1    12.04488  -18.14131   14.55563

