90
frame 0 | Written by MDAnalysis XYZWriter (release 2.4.3)
       H    13.51434  -16.23820  -18.14380
       O    14.49243  -16.05042  -18.31111
      H1    14.93705  -16.87183  -18.10214
       H    16.91471  -18.88153  -18.71854
       O    17.40697  -19.05047  -19.54589
      H1    18.19656  -18.55124  -19.47346
       H     8.04777  -19.97717  -13.38668
       O     7.49088  -20.02272  -12.65285
      H1     7.60930  -19.15719  -12.24367
       H    14.92702  -19.31739  -17.28978
       O    15.52459  -18.53045  -17.35551
      H1    15.40759  -18.05898  -16.51416
       H     6.67395  -17.85099  -14.85826
       O     5.75458  -17.91111  -15.05202
      H1     5.47459  -17.08561  -14.62265
       H     4.50571  -15.02879  -14.23322
       O     4.71564  -15.73445  -13.61107
      H1     5.38272  -15.25416  -13.09832
       H    16.67160  -16.35801  -15.25706
       O    15.90251  -16.95864  -15.03462
      H1    16.15966  -17.74078  -14.54725
       H     1.06303  -17.80221  -18.47148
       O     0.21941  -18.16145  -18.78090
      H1    -0.29534  -17.98137  -17.95615
       H     1.82187  -12.22305  -17.89060
       O     2.59887  -12.36595  -17.37981
      H1     3.34972  -12.26144  -17.97149
       H    12.48409  -13.42821  -14.81473
       O    12.98459  -14.14392  -15.22496
      H1    13.63531  -14.24803  -14.44711
       H     9.31016  -17.03471  -13.52551
       O     8.42207  -16.88283  -13.97604
      H1     7.83365  -16.85721  -13.19252
       H    12.77803  -16.16060  -13.80244
       O    12.99648  -16.80560  -14.52214
      H1    13.87578  -16.50161  -14.78262
       H     7.10445  -19.02736  -17.98624
       O     7.65417  -18.62160  -17.27806
      H1     8.47510  -18.31692  -17.72601
       H     5.30364  -12.44401  -18.86245
       O     4.86411  -11.65032  -19.06549
      H1     5.38987  -10.95697  -18.56971
       H     2.44562  -16.27769  -16.88856
       O     2.24339  -15.72590  -17.71636
      H1     3.09456  -15.29557  -17.91945
       H     3.48415  -17.50784  -14.67812
       O     2.87649  -17.11069  -15.32895
      H1     2.66130  -17.89337  -15.90859
       H    10.48365  -12.07939  -15.81441
       O    10.57968  -12.64389  -14.99772
      H1     9.89766  -12.22132  -14.40176
       H    10.84847  -10.39496  -17.48917
       O    10.12484  -11.05639  -17.26985
      H1     9.42228  -10.42510  -17.07440
       H     9.39797  -14.13462  -15.97206
       O     8.75682  -14.57899  -16.53225
      H1     8.65072  -15.42967  -16.13789
       H    12.02501  -19.76329  -15.88007
       O    11.75426  -19.66440  -14.98075
      H1    11.91546  -18.70241  -14.91661
       H     6.54415  -13.36080  -15.56601
       O     6.05158  -12.91492  -14.81644
      H1     6.82269  -12.49031  -14.41711
       H     2.54819  -14.88965  -14.75124
       O     3.06918  -14.18328  -15.06893
      H1     2.45870  -13.78939  -15.70644
       H     7.59142  -15.11284  -19.63719
       O     7.13618  -14.38967  -19.10861
      H1     7.82589  -14.00807  -18.51766
       H     9.87846  -16.81045  -18.64824
       O     9.53946  -17.68382  -18.98088
      H1     9.02344  -17.30538  -19.76913
       H    12.35494  -15.61203  -16.56000
       O    12.03416  -15.84037  -17.48395
      H1    11.63936  -16.70919  -17.35576
       H     5.25382  -17.21359  -17.01311
       O     5.44970  -16.95536  -17.90730
      H1     6.40875  -17.23966  -17.95578
       H    14.96336  -10.58478  -17.59247
       O    15.60170  -10.84254  -18.27211
      H1    15.11023  -11.49288  -18.82271
       H    13.96837  -13.93340  -18.43322
       O    14.04392  -13.17973  -19.02053
      H1    14.81710  -13.27833  -19.57670
       H     4.31460  -14.47657  -16.64969
       O     4.60950  -14.25578  -17.53358
      H1     5.24445  -14.96114  -17.83256
       H     4.54013  -11.25892  -15.90470
       O     4.51744  -10.32194  -15.86298
      H1     3.67148  -10.24430  -15.41155

