90
frame 1 | Written by MDAnalysis XYZWriter (release 2.4.3)
       H   -12.71404    6.97439   14.83104
       O   -12.09603    6.86597   15.59432
      H1   -11.82877    7.75254   15.83917
       H    -9.34156    6.79363   13.86788
       O    -9.39164    7.73488   13.54046
      H1    -9.29787    8.11198   14.43850
       H   -15.35275    7.24224   10.50411
       O   -15.66437    6.52321   11.06521
      H1   -16.60236    6.74669   11.26011
       H   -13.63842   15.75863   16.94546
       O   -13.63040   15.01014   16.34681
      H1   -14.21564   14.37004   16.78794
       H   -13.16666    8.96506   12.74753
       O   -13.64214    9.69231   13.20617
      H1   -12.88229   10.03883   13.69408
       H   -10.24427    4.40388   14.38683
       O   -10.33191    5.23850   13.91253
      H1   -10.87862    5.80293   14.49050
       H   -14.83727    7.73673   13.74495
       O   -14.27449    6.94035   13.48478
      H1   -14.66005    6.69689   12.59256
       H    -8.78334   11.79037   11.76715
       O    -9.35102   12.36041   12.35003
      H1   -10.02815   11.75887   12.71941
       H   -15.18867    9.43665   13.85736
       O   -15.94025    8.96804   14.34647
      H1   -16.71567    9.40832   13.94982
       H   -13.39432    8.58774   19.03020
       O   -12.43415    8.43147   18.83257
      H1   -12.40779    7.62273   18.29186
       H   -11.54750    9.95194    8.28078
       O   -10.62528    9.91155    8.52588
      H1   -10.21495    9.42676    7.77823
       H   -11.16471   10.41831   14.85739
       O   -11.26128   10.60133   13.90640
      H1   -10.85633    9.83610   13.44940
       H   -10.44084    8.44381   11.47035
       O   -10.98830    9.20749   11.61949
      H1   -11.34091    9.43899   10.71879
       H    -6.85488   13.17452   13.89289
       O    -7.35446   12.41980   14.27590
      H1    -8.11601   12.20994   13.67496
       H    -9.03138    6.40817   12.15833
       O    -8.61488    5.97971   11.37374
      H1    -9.00543    5.11977   11.46435
       H   -11.75963    6.69882    9.16618
       O   -12.74936    6.75378    9.09011
      H1   -13.10983    5.95714    8.83870
       H   -11.69707   15.09400   16.20885
       O   -10.70939   15.17806   16.30610
      H1   -10.41384   14.72994   15.50175
       H   -10.73626   13.14877   11.59593
       O   -11.57817   13.27335   11.12690
      H1   -11.82532   12.41654   10.69727
       H   -18.54522    9.75666   12.18739
       O   -18.32884    9.77371   13.13918
      H1   -18.74288    9.06428   13.55276
       H   -15.33996    8.72649   19.73952
       O   -15.02192    8.73967   18.83557
      H1   -14.97317    7.78937   18.67224
       H   -15.41610    5.55140   13.62770
       O   -16.06375    4.96392   14.07411
      H1   -15.51491    4.53094   14.73210
       H   -16.15456   12.66607   12.79590
       O   -16.07605   12.71908   13.75886
      H1   -17.00049   12.66024   14.03085
       H   -13.39353    5.37655   18.31641
       O   -13.61923    6.00066   17.64718
      H1   -12.88910    6.09883   16.97546
       H   -16.59032   13.29312   10.91053
       O   -15.70178   12.82150   10.85918
      H1   -14.99577   13.42387   11.12737
       H   -10.22343    9.77117   16.83928
       O   -11.04328    9.46255   16.48284
      H1   -11.57698    9.44411   17.28748
       H   -14.76630   15.33999   14.99748
       O   -15.27884   15.36467   14.17599
      H1   -15.48369   14.40218   14.03176
       H   -13.78433   10.62521   11.52675
       O   -13.69075   10.92195   10.58871
      H1   -14.38485   11.55794   10.53382
       H   -14.43050    9.48364    9.85152
       O   -14.72256    8.61644    9.50260
      H1   -13.87995    8.10968    9.41096
       H   -13.16141   13.82817   12.02827
       O   -13.85185   14.46108   11.94786
      H1   -13.89523   14.71397   12.85300
       H   -16.80284    9.09519   15.93306
       O   -17.16764    9.15989   16.84132
      H1   -16.35142    9.03493   17.36567

