90
frame 1 | Written by MDAnalysis XYZWriter (release 2.4.3)
       H   -17.08491   18.75796   13.38645
       O   -18.03048   18.62155   13.16352
      H1   -18.11269   17.72920   13.64973
       H   -14.38717   17.26794    9.61057
       O   -15.23482   17.71388    9.56326
      H1   -15.17650   18.06832    8.67016
       H    -7.84175   16.10901   17.70587
       O    -8.80659   16.16137   18.07470
      H1    -9.29180   15.80450   17.30612
       H    -8.41698   14.06855   14.29038
       O    -9.00313   14.80966   14.20669
      H1    -9.40462   14.81545   13.33169
       H   -17.05557   15.51764   17.36732
       O   -16.66077   16.33696   17.12132
      H1   -17.06287   16.91239   17.77755
       H   -13.63842   15.75863   16.94546
       O   -13.63040   15.01014   16.34681
      H1   -14.21564   14.37004   16.78794
       H   -13.16666    8.96506   12.74753
       O   -13.64214    9.69231   13.20617
      H1   -12.88229   10.03883   13.69408
       H   -17.17686   15.87833   14.23425
       O   -18.07359   16.22807   14.46352
      H1   -17.83679   16.68149   15.31017
       H   -14.08979   16.91056   13.31722
       O   -13.39431   17.41043   12.87963
      H1   -12.75654   17.52749   13.62705
       H   -13.54060   17.71926   17.44529
       O   -13.97923   17.12152   18.10876
      H1   -14.91268   17.10331   17.78200
       H   -19.72893   18.78325   15.80583
       O   -18.93751   19.30643   15.66055
      H1   -18.70864   19.14054   14.69770
       H   -14.24420   19.10182   15.20978
       O   -13.78955   18.87555   16.02915
      H1   -12.91196   18.73809   15.70792
       H   -17.90690   14.04214   18.92646
       O   -18.23741   14.96923   19.01348
      H1   -17.76941   15.26748   19.81622
       H   -17.44867   17.44417   11.77699
       O   -17.25092   16.81907   11.06360
      H1   -16.37972   17.17161   10.74391
       H   -11.00599   15.81003   11.34507
       O   -10.36390   16.39389   11.85098
      H1    -9.84057   16.85732   11.19521
       H   -14.69656   12.62327   18.70876
       O   -15.01959   13.46611   18.39680
      H1   -15.63422   13.79922   19.06675
       H   -11.69707   15.09400   16.20885
       O   -10.70939   15.17806   16.30610
      H1   -10.41384   14.72994   15.50175
       H   -10.73626   13.14877   11.59593
       O   -11.57817   13.27335   11.12690
      H1   -11.82532   12.41654   10.69727
       H   -17.37565   18.96443   19.19442
       O   -17.84608   18.42303   18.61370
      H1   -18.11388   19.10267   17.94479
       H   -13.44970   15.84390   10.46475
       O   -12.82793   16.45132   10.09175
      H1   -12.71370   16.93357   10.90997
       H   -16.15456   12.66607   12.79590
       O   -16.07605   12.71908   13.75886
      H1   -17.00049   12.66024   14.03085
       H   -17.69295   15.21514   11.36993
       O   -17.93514   14.28710   11.46676
      H1   -18.72282   14.27385   10.91557
       H   -16.59032   13.29312   10.91053
       O   -15.70178   12.82150   10.85918
      H1   -14.99577   13.42387   11.12737
       H   -18.58422   11.43490   14.39510
       O   -18.37223   12.19825   14.89412
      H1   -19.06200   12.89586   14.66174
       H   -16.93654   12.62931   17.65957
       O   -17.94136   12.59752   17.70817
      H1   -18.27719   12.32897   16.85321
       H   -14.76630   15.33999   14.99748
       O   -15.27884   15.36467   14.17599
      H1   -15.48369   14.40218   14.03176
       H   -13.78433   10.62521   11.52675
       O   -13.69075   10.92195   10.58871
      H1   -14.38485   11.55794   10.53382
       H   -10.98822   18.53857   15.23622
       O   -11.54237   17.72649   15.03406
      H1   -11.06670   17.06295   15.64354
       H    -9.63514   14.96287   19.00492
       O   -10.34361   14.30549   19.40412
      H1   -10.99089   14.35561   18.70072
       H   -13.16141   13.82817   12.02827
       O   -13.85185   14.46108   11.94786
      H1   -13.89523   14.71397   12.85300

