90
frame 0 | Written by MDAnalysis XYZWriter (release 2.4.3)
       H    16.20109    5.48584    4.92908
       O    15.27962    5.71640    5.12560
      H1    14.76526    5.31896    4.46540
       H    11.62364    2.78231    8.97136
       O    11.60015    3.26996    8.10718
      H1    12.27705    2.84940    7.55364
       H    15.74343    3.03551    8.84827
       O    16.36888    2.76927    9.59758
      H1    16.55555    1.80369    9.45045
       H    12.94611    2.40289   10.60675
       O    12.01614    2.11985   10.49804
      H1    11.98609    1.21323   10.88581
       H    14.49603   -0.43013    7.91860
       O    15.39885   -0.38914    7.59335
      H1    15.90079   -0.17785    8.39771
       H    15.77235    0.42701    4.24490
       O    16.04843   -0.38730    3.81293
      H1    16.09295   -0.01519    2.91361
       H    14.29035    4.23470    6.77103
       O    14.28964    3.59663    7.49897
      H1    13.58384    4.03719    8.03339
       H    10.68865   -1.75063    6.04047
       O    10.41561   -1.64338    6.92298
      H1     9.54940   -1.28354    6.73898
       H    15.09692    1.23364    1.03244
       O    14.50045    1.87454    1.44141
      H1    14.28213    2.45598    0.64243
       H    12.35097    6.64579    8.63571
       O    13.14337    6.06177    8.65993
      H1    13.68728    6.44483    9.42686
       H    13.95562    3.60492    2.61816
       O    13.78335    4.55906    2.93633
      H1    12.95884    4.38656    3.38402
       H    11.62952    4.97435    4.84509
       O    11.60257    4.23424    4.21854
      H1    11.73088    3.40977    4.75293
       H     9.36501    5.67857    7.70750
       O    10.19799    5.51061    7.29102
      H1    10.61318    4.90874    7.88610
       H    12.62088    1.99123    0.56395
       O    11.68691    1.99248    0.28754
      H1    11.19574    2.19792    1.09045
       H    17.88864    2.30136    7.84338
       O    17.57572    1.65889    7.17487
      H1    18.41434    1.48940    6.68403
       H     9.96160   -0.56671    2.12659
       O    10.24679   -0.61431    3.03842
      H1    11.21004   -0.41530    2.95358
       H    10.47848    2.84276    3.22333
       O    10.52830    2.12051    2.57932
      H1    10.44002    1.26480    3.11822
       H    12.34159   -0.69507    7.43979
       O    12.76666   -0.01365    7.94896
      H1    12.45355   -0.16518    8.81793
       H     9.07642    1.63448    9.76577
       O     8.63177    1.19269   10.51107
      H1     8.09194    0.51497   10.08101
       H    11.33257    4.87812    2.35861
       O    11.23734    5.54941    1.64361
      H1    11.71858    5.00370    0.98728
       H    11.08221   -2.18186    9.74864
       O    11.10939   -2.89703    9.08879
      H1    10.95416   -2.48508    8.25939
       H    11.06905    6.59019    5.82618
       O    11.74984    6.61035    5.14403
      H1    11.22383    7.01503    4.35535
       H    16.52328   -1.49240    5.19083
       O    17.14404   -1.79156    5.89877
      H1    16.63501   -1.55573    6.68565
       H     9.69653    3.80019    5.73678
       O     9.78141    2.92989    6.12796
      H1    10.27879    3.15564    6.93101
       H    12.48155   -3.16347    4.47840
       O    12.12588   -3.46610    5.37962
      H1    12.95597   -3.16798    5.88169
       H     7.16407   -1.61210    4.32972
       O     7.47319   -0.81790    3.91035
      H1     8.42931   -1.01832    3.83544
       H    12.68148    1.44625    5.87890
       O    13.00232    1.76821    5.02308
      H1    13.07064    0.98167    4.45404
       H    13.52048    0.43262    2.63813
       O    13.17869   -0.25915    3.19838
      H1    13.68489   -0.99694    2.94957
       H    14.82894    1.88506    5.43204
       O    15.70018    2.07628    4.97312
      H1    16.39128    1.92066    5.70156
       H     8.92945    1.14237    6.33745
       O     8.24197    0.44530    6.26996
      H1     7.95380    0.38740    5.30904

