90
frame 2 | Written by MDAnalysis XYZWriter (release 2.4.3)
       H    17.33086    4.22622    6.62970
       O    17.08463    3.63263    7.38176
      H1    16.20894    3.97290    7.69095
       H    16.92211    5.21657   10.86178
       O    16.03397    5.60691   10.72062
      H1    15.43647    5.26542   11.32068
       H    13.39968    3.43926    8.47949
       O    14.29739    3.82319    8.56667
      H1    14.07919    4.76172    8.64339
       H    12.88129   -4.35633    7.40976
       O    13.60452   -3.94125    7.99494
      H1    14.00102   -3.26063    7.38396
       H    12.07191    0.98239   14.46243
       O    12.08086    0.02793   14.14040
      H1    12.22876    0.09608   13.20296
       H    13.73827    0.50806   11.29405
       O    13.66246   -0.41966   11.67037
      H1    13.88463   -1.02183   10.96509
       H    12.73983    1.96626    4.63710
       O    13.58273    2.37677    4.46877
      H1    13.25274    3.26423    4.26556
       H    14.69933   -1.37612    8.85844
       O    14.95034   -1.81555    9.66350
      H1    15.66642   -2.42210    9.61730
       H    15.39822    2.20109   12.61104
       O    15.49424    2.68645   13.43986
      H1    15.22684    2.03734   14.10434
       H    13.51798    0.32128    7.25617
       O    13.76266   -0.61657    7.55405
      H1    13.98611   -1.13465    6.74335
       H    18.24801   -0.62042    7.92270
       O    17.75746    0.11603    8.23961
      H1    16.91957    0.14412    7.79601
       H     6.76399   -0.46740    6.50013
       O     6.52711    0.35262    6.92963
      H1     7.00637    0.36266    7.76609
       H    16.35010   -0.79838   10.58068
       O    17.04055   -0.21538   10.92020
      H1    17.70947   -0.17196   10.19008
       H     9.70056    1.23693   12.38657
       O     9.09807    0.51862   12.46702
      H1     8.45680    0.58082   11.78330
       H    13.56844   -1.76501    4.10369
       O    13.43152   -0.90365    3.66417
      H1    12.56416   -0.57794    3.90209
       H     8.70200   -0.63062    8.34676
       O     8.17849   -0.08315    8.97063
      H1     7.80646   -0.75340    9.56759
       H    15.21600    2.60234    9.88366
       O    15.29547    2.01931   10.69637
      H1    16.01131    1.40405   10.51079
       H    11.17479   -1.02684    7.48997
       O    10.26151   -0.86888    7.16560
      H1    10.12290   -1.74439    6.78959
       H    11.61246   -0.38786   10.01465
       O    11.30007    0.48831   10.10815
      H1    10.38250    0.44899   10.19287
       H    11.05095    7.41976    9.05304
       O    11.28659    6.83935    8.32062
      H1    11.13053    5.93568    8.56193
       H    13.49499    5.10418   12.88780
       O    13.68779    4.41256   12.26339
      H1    14.38009    3.91281   12.70342
       H    10.20866    4.19126    7.10466
       O    10.40452    4.27942    8.05378
      H1     9.71927    3.90101    8.65500
       H    16.08330    2.08866    6.60342
       O    15.77804    1.21792    6.41440
      H1    14.96777    1.43896    5.93263
       H    10.24594    3.14834   12.57060
       O     9.42627    3.56132   12.86451
      H1     8.88826    2.81216   12.81322
       H    10.83190    0.68187    5.50363
       O    10.95127    0.96771    4.55565
      H1    10.21835    0.58461    4.09427
       H    11.56039   -2.97498   10.11399
       O    11.98628   -2.16267    9.81822
      H1    12.56308   -2.47307    9.14547
       H    12.00066    1.92008   11.42212
       O    11.75486    2.55403   12.08401
      H1    12.52890    3.12697   12.08151
       H    11.47247    2.49744    7.64689
       O    12.13961    1.86489    7.95315
      H1    11.85005    1.52169    8.83096
       H     8.09016    3.55020    9.96714
       O     8.60221    2.80697    9.69362
      H1     8.10707    2.11031    9.29436
       H    10.02546    2.71790    4.75459
       O    10.10031    3.66556    5.04782
      H1     9.32618    4.12522    4.77275

