90
frame 0 | Written by MDAnalysis XYZWriter (release 2.4.3)
       H     3.31073  -17.62890   -1.93134
       O     3.49057  -18.44391   -1.48627
      H1     3.63184  -18.21394   -0.51614
       H    -3.50770  -16.88985   -5.71209
       O    -3.24799  -15.96779   -5.75549
      H1    -2.91856  -15.77500   -4.90383
       H     0.42663  -12.75344   -4.38498
       O     1.28650  -13.16860   -4.37808
      H1     0.91714  -14.05290   -4.21322
       H    -0.91714  -15.17438  -11.48663
       O    -1.88305  -15.05977  -11.40057
      H1    -2.15866  -14.48347  -12.12355
       H     1.87424  -15.11866  -10.26591
       O     0.93040  -15.02547   -9.99938
      H1     1.07675  -14.73924   -9.01671
       H     5.57889  -17.19377   -8.87289
       O     5.43619  -16.94175   -9.79947
      H1     4.98542  -16.03127   -9.73184
       H     6.43652  -19.57856   -8.42554
       O     7.13072  -18.95980   -8.34235
      H1     7.63602  -19.25137   -9.16760
       H    -1.80858  -16.58882  -13.70782
       O    -1.28098  -16.09601  -14.43553
      H1    -0.45603  -16.05122  -13.97223
       H     2.60603  -19.08201   -4.53423
       O     1.70179  -18.88466   -4.76278
      H1     1.69623  -18.46877   -5.64297
       H    -0.68697  -16.68143   -3.44835
       O    -0.33751  -15.85696   -3.78941
      H1    -1.17581  -15.34328   -3.66484
       H     3.39584  -14.44500  -11.58493
       O     3.44728  -15.21076  -10.97435
      H1     3.45959  -15.97568  -11.54381
       H    -6.25645  -18.38482  -11.57871
       O    -6.06088  -19.14493  -10.99098
      H1    -5.40052  -18.75065  -10.41375
       H     2.05173  -15.87018   -2.83754
       O     2.97010  -16.08275   -2.76572
      H1     3.37748  -15.98509   -3.67809
       H     1.52197  -17.21758  -14.03735
       O     1.05317  -16.82397  -13.34499
      H1     1.67663  -16.20760  -12.93975
       H     1.97195  -13.69083   -7.66406
       O     1.75689  -14.61275   -7.54226
      H1     0.87128  -14.46763   -7.24680
       H    -1.25100  -13.08412   -5.43943
       O    -1.35023  -12.51120   -4.65043
      H1    -1.92012  -11.80549   -4.90608
       H    -0.18365  -17.69837   -9.77246
       O    -0.70434  -17.33807   -9.04868
      H1    -0.13330  -16.61416   -8.83538
       H     4.37480  -15.63044   -5.37511
       O     3.62929  -16.12887   -5.85920
      H1     3.04966  -15.41598   -6.15677
       H     2.75828  -18.45271  -10.99109
       O     3.57963  -18.49959  -11.49652
      H1     4.13591  -18.20881  -10.72350
       H     0.39917  -17.42704    0.49023
       O     0.74662  -17.13531   -0.40972
      H1     0.21502  -17.71047   -0.96937
       H     0.14407  -19.54252  -11.14254
       O     0.61666  -18.73577  -11.00357
      H1     0.45121  -18.30287  -11.85288
       H    -4.16791  -18.72848   -4.98862
       O    -4.36162  -18.40321   -5.87624
      H1    -5.35087  -18.24500   -5.92969
       H    -1.45980  -15.06596   -6.34782
       O    -1.03329  -14.37796   -6.85903
      H1    -1.81922  -14.02597   -7.29405
       H    -4.62184  -15.81346   -8.45735
       O    -5.10217  -14.99744   -8.12234
      H1    -4.75120  -14.36267   -8.81969
       H     6.57698  -17.66887   -7.17685
       O     6.11491  -16.92426   -6.77105
      H1     5.20241  -17.19864   -6.68927
       H    -3.52491  -16.72676   -9.76568
       O    -4.11452  -17.18234   -9.12438
      H1    -3.54576  -17.54447   -8.46264
       H     0.12613  -18.52896   -8.00522
       O     0.52871  -19.25883   -7.49808
      H1     1.07205  -19.70431   -8.15512
       H    -1.38485  -18.95564   -3.64321
       O    -0.57972  -18.54685   -3.23224
      H1     0.04442  -18.76509   -3.96049
       H     5.17125  -18.20262   -2.32289
       O     5.95300  -18.22516   -2.90176
      H1     6.67068  -17.75138   -2.49649
       H    -2.83710  -18.27102  -12.27939
       O    -3.02922  -17.36149  -12.55631
      H1    -2.56068  -16.74311  -11.94044

