90
frame 0 | Written by MDAnalysis XYZWriter (release 2.4.3)
       H     5.43775    3.10416    9.83739
       O     4.99597    3.09760   10.71470
      H1     4.96550    2.18273   10.98221
       H    10.95444    3.26337   15.00265
       O    10.65276    3.70157   14.22811
      H1    10.77833    3.05258   13.52552
       H     7.02370   -3.49343   11.47353
       O     6.52151   -3.02505   10.81033
      H1     6.28174   -3.69998   10.16312
       H    12.17167    0.60930   13.35501
       O    12.72109   -0.21242   13.66247
      H1    13.26289   -0.35208   12.82939
       H    13.08893    5.99450   14.25387
       O    12.59715    5.57145   13.57733
      H1    12.02233    4.85124   13.84873
       H     6.43362    3.14151   14.28758
       O     5.65514    2.65462   14.59479
      H1     5.64715    2.75855   15.52738
       H     5.60784    1.78481   17.53411
       O     6.11697    2.46670   17.17204
      H1     6.95221    2.01030   17.11119
       H     3.44402   -0.76238    9.96073
       O     3.87351   -1.58226   10.29133
      H1     4.77006   -1.40660   10.53454
       H     6.55508   -0.48327    6.19966
       O     6.46764    0.04522    7.00853
      H1     6.66627   -0.58867    7.73399
       H     5.47215    6.21616   15.28256
       O     5.90495    5.79640   14.52049
      H1     5.24011    5.67122   13.84064
       H     3.29543    0.08551   15.20372
       O     2.75476   -0.04646   16.00127
      H1     3.22149    0.22276   16.78020
       H    10.20043   -0.44888   14.31418
       O     9.30654   -0.32866   14.73783
      H1     8.79500    0.20358   14.06833
       H     7.83504    1.98202   12.99090
       O     8.24959    1.15619   12.66320
      H1     7.48656    0.66371   12.32696
       H     8.86770    3.96831   14.25056
       O     7.89025    3.99623   14.04380
      H1     7.47541    4.80368   14.39855
       H     8.54444   -1.62880    8.63101
       O     7.66528   -1.37863    8.98732
      H1     7.41450   -2.20612    9.45980
       H     7.59159   -4.87663   12.61886
       O     8.21714   -4.10524   12.61820
      H1     8.31878   -3.85255   13.52560
       H    11.59733   -0.91348    9.92831
       O    11.22003    0.03671    9.99898
      H1    10.43252    0.06935    9.38120
       H     4.32349    4.33512   12.01170
       O     4.04651    5.08281   12.55584
      H1     3.52189    4.74412   13.30870
       H     6.20676   -1.18170   11.44822
       O     6.02213   -0.29414   11.69760
      H1     5.19223   -0.14870   12.23174
       H    10.53927    3.50286    7.45182
       O    10.69025    3.38930    8.37388
      H1    10.08643    2.72485    8.68991
       H     8.88591    3.05033   17.74928
       O     9.02114    3.69498   18.48144
      H1     8.27002    3.45361   19.05512
       H     9.59627    3.69454   10.49579
       O     9.56693    4.36477   11.25708
      H1     8.94468    4.03570   11.95577
       H     7.00227   -1.33912   16.73618
       O     6.08211   -1.09545   16.96032
      H1     5.59900   -1.51538   16.27288
       H    11.48734    1.31131   11.61045
       O    11.53922    1.78206   12.44626
      H1    12.12684    2.49800   12.18943
       H     4.58052    1.46161   14.11782
       O     4.22554    0.63292   13.66334
      H1     3.46639    0.83807   13.07218
       H    12.25086    2.49763    8.51013
       O    12.92630    1.90224    8.82328
      H1    12.42339    1.17953    9.26941
       H     9.05993    0.84084   16.16094
       O     8.97472    1.41833   16.94631
      H1     9.06295    0.87142   17.73707
       H     8.38419    0.71795   10.22336
       O     8.62687    1.47708    9.65179
      H1     8.02088    1.34653    8.92637
       H    10.22051   -3.42461   14.39661
       O     9.41925   -3.16085   14.91031
      H1     9.37523   -2.21572   14.84170
       H     6.06271    4.23145    7.80212
       O     6.44251    3.46556    8.27918
      H1     7.24026    3.74048    8.75034

