90
frame 0 | Written by MDAnalysis XYZWriter (release 2.4.3)
       H     4.38885   -1.11861    6.49226
       O     4.45523   -1.67097    5.67524
      H1     3.61063   -2.18716    5.58331
       H     0.60250   -0.85471    4.91952
       O     0.14878   -0.57603    4.06845
      H1    -0.76172   -0.70857    4.35474
       H     0.50935   -3.87328    5.67724
       O     1.25591   -4.52676    5.65572
      H1     1.54481   -4.65269    6.61258
       H    -0.89529   -7.78644    9.63518
       O    -0.46734   -8.54396   10.02819
      H1     0.10046   -8.94619    9.30448
       H    -2.40554   -4.85648   12.30127
       O    -2.61312   -4.43958   11.45788
      H1    -1.98087   -4.80049   10.78420
       H    -1.31087   -1.25416    8.11069
       O    -1.23799   -2.16178    8.44186
      H1    -1.32298   -1.96762    9.41638
       H     2.25678    0.47711   10.02126
       O     3.12406    0.14094   10.11129
      H1     3.05159   -0.78566    9.88814
       H    -0.66938   -6.10063    4.24467
       O    -1.26833   -5.45230    4.60817
      H1    -0.60440   -5.13036    5.34700
       H    -0.90735   -7.73032    7.13927
       O    -1.75068   -7.46613    7.49635
      H1    -1.97103   -6.56015    7.17829
       H     1.57580   -8.07594    6.86680
       O     0.82135   -7.58815    6.41063
      H1     1.08027   -7.64706    5.45279
       H     4.33916   -6.37130    9.20218
       O     3.69322   -6.29468    9.93028
      H1     4.10162   -5.68050   10.58029
       H     0.10440  -10.57610    7.59305
       O    -0.37207  -10.13043    6.88584
      H1     0.31070   -9.54003    6.60022
       H     5.47354   -7.50380   10.66530
       O     5.54832   -7.72206   11.58942
      H1     4.70980   -8.17834   11.80213
       H     0.01060   -2.85350   13.17782
       O    -0.79271   -3.17556   13.63579
      H1    -1.43132   -2.44057   13.47245
       H     0.65536   -6.39545   12.54727
       O     1.10931   -6.50404   11.69782
      H1     0.33191   -6.67850   11.11665
       H     3.04850   -7.79851   11.83668
       O     3.12401   -8.62198   12.39750
      H1     3.18741   -9.35039   11.74075
       H     2.41878   -5.51823    8.80998
       O     1.61921   -5.21263    8.33459
      H1     1.42554   -5.99762    7.83571
       H     1.25199   -9.16791   12.57011
       O     0.39666   -9.58327   12.32088
      H1     0.05715   -9.14071   11.46194
       H     0.87089   -2.20671    8.85272
       O     1.52144   -2.18305    9.56313
      H1     2.32115   -2.49531    9.06443
       H     0.27467   -5.39654    9.70816
       O    -0.64407   -5.46628    9.83905
      H1    -0.95593   -5.24780    8.94492
       H     6.47578   -5.73395    8.27745
       O     5.88843   -6.51503    8.09395
      H1     6.48631   -7.14130    8.55841
       H     1.12170   -0.87618    6.87168
       O     1.72467   -1.10332    6.16595
      H1     2.16964   -0.23643    6.02463
       H     3.31385   -7.32036    3.53143
       O     3.99235   -8.05665    3.30454
      H1     3.92674   -8.66158    4.08849
       H    -2.32109   -4.17034    6.64293
       O    -1.43946   -4.36073    7.05291
      H1    -1.36076   -3.58341    7.64390
       H     1.91287   -5.32340    3.80278
       O     2.68993   -5.68453    3.31300
      H1     2.29514   -6.05916    2.48182
       H     4.76094   -2.71791    8.58834
       O     3.98121   -3.24824    8.73322
      H1     4.29123   -3.82137    9.45460
       H     1.25206   -4.72397   11.43157
       O     1.29475   -3.81367   11.73684
      H1     1.44286   -3.29846   10.93543
       H     3.08510   -3.82560   11.93900
       O     3.97658   -3.89118   11.60533
      H1     4.38424   -3.26583   12.21048
       H    -1.70562   -7.91572   11.99173
       O    -2.64722   -7.84416   11.96450
      H1    -2.84263   -7.09566   12.59972
       H     2.63881   -9.40662    8.78706
       O     2.31272   -8.47756    8.48645
      H1     2.56447   -7.92711    9.24775

