90
frame 1 | Written by MDAnalysis XYZWriter (release 2.4.3)
       H     7.24636   15.91013    5.31496
       O     7.15455   15.07187    4.85519
      H1     7.99919   14.66011    5.13001
       H    12.57748   14.77045    2.23401
       O    12.00650   14.65467    2.97377
      H1    11.94409   15.52450    3.29295
       H    11.46411   18.07631    3.14852
       O    11.02513   17.33910    3.59240
      H1    11.63501   17.18071    4.34778
       H     6.94117   13.74165    1.37404
       O     7.11914   12.81142    1.37389
      H1     6.72859   12.47878    2.23350
       H    15.21982   17.91201    0.01087
       O    15.04233   18.52313    0.76800
      H1    15.56583   19.33881    0.49950
       H     5.38239   17.52238    6.61271
       O     6.25906   17.45921    6.23616
      H1     6.59282   18.33903    6.48509
       H    14.78444   19.51954    6.09140
       O    14.75359   19.80263    5.10702
      H1    15.44759   19.22429    4.75518
       H    11.96218   19.27424    0.71415
       O    12.45142   18.67747    1.26009
      H1    13.34853   18.90814    0.94282
       H    11.77433   16.09748    6.68405
       O    12.32797   16.60021    6.04364
      H1    12.53364   17.42071    6.53867
       H     9.71575   14.74175    0.01985
       O     9.54900   15.46769    0.60476
      H1    10.44168   15.58255    0.97560
       H     8.37355   13.10894    5.97459
       O     9.12801   13.43479    5.45033
      H1     9.67270   14.00466    6.10031
       H     3.08585   18.87577    1.25791
       O     3.46155   19.41272    1.96470
      H1     4.34575   19.02501    2.12789
       H     5.96247   17.65949    2.92030
       O     5.69420   18.39414    3.58534
      H1     5.93312   18.06157    4.47139
       H     9.45821   18.78252    3.89678
       O     9.14719   19.55323    4.39489
      H1     8.59608   20.04266    3.71232
       H     6.27018   15.74280    8.28695
       O     6.64508   14.90723    8.53725
      H1     6.00162   14.29225    8.22192
       H    14.46141   18.72462    8.30330
       O    15.33316   18.67615    7.89017
      H1    15.90527   18.29647    8.61998
       H     9.60071   18.51336    9.60127
       O     8.95430   18.29925   10.25074
      H1     9.37328   17.65661   10.80899
       H    16.66232   17.39526    3.64279
       O    16.32977   17.88326    4.43709
      H1    15.74639   17.26382    4.86631
       H     5.68057   17.47637   10.05485
       O     6.12832   17.67089    9.22624
      H1     7.10202   17.77719    9.53220
       H    10.00919   15.17201    8.01856
       O    10.64443   14.95843    7.29971
      H1    11.31626   14.42741    7.87554
       H     4.48889   18.34858   -0.23521
       O     5.35770   18.29057    0.19806
      H1     5.94257   17.67094   -0.25227
       H     8.86574   12.56998    1.61929
       O     9.87180   12.68605    1.45617
      H1    10.09256   13.47951    1.88218
       H     1.79566   17.49368    5.49872
       O     2.74224   17.34421    5.55236
      H1     3.07269   18.27820    5.55692
       H    13.93314   15.88050    5.39070
       O    14.90400   15.83886    5.24491
      H1    14.83007   14.96626    4.79619
       H     7.40543   15.31942    2.88894
       O     7.14298   15.47581    1.99479
      H1     8.05490   15.53565    1.68225
       H     3.76324   15.74602    5.36620
       O     3.91909   14.77553    5.36142
      H1     4.87136   14.74116    5.30085
       H    10.67403   18.49828    7.19265
       O    11.53712   18.64941    7.61907
      H1    11.49435   19.28297    8.40448
       H    12.59063   13.41829    6.23291
       O    13.06481   13.13998    5.43887
      H1    12.55152   13.53829    4.67318
       H    12.15112   16.00711   -0.80238
       O    11.73436   16.86781   -0.98194
      H1    11.79172   17.26715   -0.11835
       H     8.64025   16.60063   -1.84337
       O     9.32181   17.13976   -2.27155
      H1    10.12244   17.02872   -1.73233

