90
frame 0 | Written by MDAnalysis XYZWriter (release 2.4.3)
       H    15.88838   13.05864    4.72267
       O    16.57692   13.34422    4.13991
      H1    17.26124   13.25384    4.78464
       H    11.89285   14.75147    3.46431
       O    10.96432   14.70102    3.29661
      H1    10.63847   15.45945    3.73918
       H    14.65197    9.90626    5.02408
       O    14.96273   10.60526    4.46834
      H1    14.10768   11.04270    4.27406
       H    17.44115   11.17071    2.23834
       O    16.70419   10.66185    2.00506
      H1    16.40317   10.40287    2.86332
       H    14.60875   14.46591    1.84506
       O    14.78502   15.19103    2.49914
      H1    15.35801   14.73513    3.09774
       H    11.65111   17.82778    3.05228
       O    10.93509   17.52517    3.63483
      H1    11.30315   17.36999    4.51519
       H    15.09268   18.69687   -0.90486
       O    14.72366   19.21879   -0.19130
      H1    15.49890   19.75501    0.07673
       H    13.64032   14.68068   -0.43903
       O    12.76340   14.59871    0.01242
      H1    12.59167   13.65398   -0.06160
       H    12.23591   19.30287    0.97746
       O    12.56251   18.43870    1.39817
      H1    13.41669   18.32801    0.93596
       H    18.01523   18.53884   -0.95954
       O    18.22460   17.72598   -1.48642
      H1    17.96087   17.00285   -0.86869
       H    11.44549   15.98797    6.63887
       O    11.87046   16.63501    6.03994
      H1    11.73171   17.41069    6.62977
       H    17.94236   14.59063    2.28642
       O    18.56133   15.22656    1.90168
      H1    18.10355   16.03424    2.11043
       H    19.08805   14.39900    7.31177
       O    19.43170   15.26045    7.42946
      H1    19.31641   15.60095    6.52077
       H    13.72676   12.52731    1.92828
       O    14.42515   12.53084    1.22645
      H1    15.07250   12.03004    1.70946
       H    19.38081   17.44340    5.66637
       O    19.29507   16.75634    4.98903
      H1    18.38265   16.98507    4.67455
       H    14.44464   12.09924   -0.68477
       O    14.67691   11.60735   -1.46831
      H1    14.07008   10.84921   -1.36760
       H    18.50110   13.99256   -1.09295
       O    18.06353   14.81469   -0.81814
      H1    18.32824   14.81911    0.10714
       H    13.96044   17.84029    8.25417
       O    14.59619   17.82449    7.50153
      H1    15.36313   17.50094    7.96888
       H    16.68756   17.40965    3.16801
       O    16.86240   17.53063    4.14954
      H1    16.06019   17.12634    4.55401
       H    11.48538   11.60734    2.67310
       O    12.28053   11.18691    3.09939
      H1    12.51503   10.55329    2.39438
       H     9.01863   12.84438    2.05074
       O     9.88682   12.51257    2.10534
      H1    10.24597   13.32130    2.55983
       H    14.34409   16.40422    6.13601
       O    14.91399   16.00958    5.43161
      H1    14.28496   15.44495    4.89917
       H    15.81234   14.74618   -1.45163
       O    14.85300   15.06628   -1.65616
      H1    14.83073   14.69073   -2.54082
       H    15.77101   14.94243    6.97053
       O    15.85782   14.73522    7.88873
      H1    16.28488   15.54988    8.19792
       H    13.66176   12.69683    7.77619
       O    13.50839   13.55032    7.40132
      H1    14.12992   14.13233    7.86790
       H    19.44278   12.04862    6.51148
       O    18.68423   12.35175    5.97030
      H1    19.07152   12.29294    5.08399
       H    13.65606   13.81922    5.68936
       O    13.29252   13.87220    4.73220
      H1    12.68624   13.13192    4.80251
       H    16.70874   10.90321    6.92097
       O    16.36746   11.66535    7.42115
      H1    17.11068   12.28388    7.18811
       H    12.36532   16.19135   -0.34513
       O    12.01222   17.00646   -0.74401
      H1    12.19721   17.65029    0.00676
       H    15.66036   16.47199    1.42088
       O    16.30842   17.17084    1.35412
      H1    15.74087   17.90808    1.16513

