90
frame 0 | Written by MDAnalysis XYZWriter (release 2.4.3)
       H     9.75457   13.19458   -8.82031
       O     9.95232   13.57419   -7.96187
      H1    10.67843   14.23743   -8.17978
       H    15.61395   17.09920  -13.49214
       O    15.10753   17.22459  -12.68359
      H1    14.20063   16.79609  -12.89323
       H    16.90624   17.73103   -6.53485
       O    16.84728   18.39960   -7.24556
      H1    17.77743   18.36300   -7.46641
       H    16.17892   11.89131  -14.03822
       O    16.41896   12.68546  -13.46965
      H1    15.81228   12.71773  -12.71201
       H    10.99607   15.62421  -12.97623
       O    10.40360   14.90982  -12.66391
      H1     9.58726   15.02332  -13.17486
       H    13.69897   19.70622  -12.97840
       O    13.80388   19.50840  -12.00662
      H1    14.17227   18.64132  -12.20497
       H    12.07262   15.93058   -7.88450
       O    12.27421   15.36609   -7.17846
      H1    11.84470   15.84020   -6.42675
       H    11.14224   15.64881  -10.96419
       O    11.31728   15.70773   -9.98573
      H1    12.18527   16.14116   -9.95844
       H    12.59577   16.48852  -14.46619
       O    12.44998   16.73058  -13.47774
      H1    11.82274   17.43859  -13.56707
       H     9.57095   18.32496   -6.39746
       O     8.93478   19.04106   -6.30200
      H1     8.80699   19.36312   -7.23009
       H    14.30504   17.08806   -9.05642
       O    13.44130   17.19751   -9.44042
      H1    13.46127   18.16422   -9.54753
       H    16.34702   13.10876   -6.88767
       O    17.27391   12.79007   -6.83451
      H1    17.66101   13.68997   -6.54417
       H    15.06145   15.51753  -11.56230
       O    14.57479   14.71314  -11.47935
      H1    14.39869   14.80839  -10.49222
       H    17.96776   15.35600  -13.76155
       O    18.53326   15.74412  -13.07696
      H1    18.37377   15.19933  -12.30635
       H    18.76353   14.80865   -9.96444
       O    17.90038   15.04166  -10.33179
      H1    17.53986   14.13190  -10.20793
       H    18.01640   17.78337  -11.94357
       O    18.02892   18.21547  -11.08745
      H1    18.01695   19.12805  -11.34360
       H    14.16556   12.56231   -9.44264
       O    13.61345   11.89567   -9.83168
      H1    12.89372   12.40089  -10.24483
       H    10.61326   16.56176   -5.01355
       O    11.26263   17.12193   -5.33904
      H1    11.70460   17.22536   -4.47117
       H     9.30634   12.96189  -11.24279
       O     9.75685   12.50062  -10.53345
      H1     9.06342   11.89198  -10.22482
       H    17.55402   15.70367   -5.12793
       O    17.09540   15.80820   -5.97253
      H1    16.22058   15.48638   -5.69083
       H    10.92381   19.31122   -9.20900
       O    11.74143   19.69194   -9.56216
      H1    11.89187   19.19619  -10.34606
       H     7.30014   16.86959  -10.86323
       O     7.10284   17.70074  -10.41247
      H1     7.14925   18.22174  -11.24907
       H    15.53595   14.05138   -4.64147
       O    15.08957   14.84288   -4.39365
      H1    14.32748   14.90033   -5.00804
       H    10.06659   18.03783  -10.80252
       O    10.36919   18.06901  -11.70797
      H1     9.68028   18.60677  -12.08542
       H    13.82621   14.04200   -7.47141
       O    14.77896   13.96130   -7.45634
      H1    15.22060   14.72561   -7.86388
       H    19.60898   19.60923   -8.36638
       O    19.15484   18.78698   -8.44653
      H1    18.86330   18.87037   -9.32875
       H    17.62183   12.12320  -10.29465
       O    16.86856   12.59303   -9.75479
      H1    17.05511   12.46365   -8.83282
       H    10.17104   17.03738   -9.32572
       O     9.71844   17.83587   -8.98052
      H1     8.75511   17.73149   -9.21562
       H    16.75805   15.92604   -9.25091
       O    15.98148   16.06458   -8.60782
      H1    16.36118   16.82917   -8.11847
       H    13.23840   13.87270  -12.35998
       O    12.67894   13.23300  -12.86925
      H1    11.86017   13.74628  -13.04400

