90
frame 0 | Written by MDAnalysis XYZWriter (release 2.4.3)
       H     7.28804   15.66695    5.41969
       O     7.64446   15.20365    4.66187
      H1     7.82456   14.32135    5.02145
       H    -2.66187   14.63656    7.77484
       O    -2.07028   14.64938    6.97150
      H1    -1.16419   14.84301    7.38076
       H     2.85710   13.19841   13.43937
       O     3.01722   14.10282   13.14265
      H1     3.11230   14.06110   12.16617
       H    -0.12356   12.05045    8.30511
       O    -0.70556   11.93038    9.10796
      H1     0.04532   11.63632    9.59393
       H     7.12389   13.81247    2.04993
       O     7.26987   12.86259    2.06204
      H1     6.84342   12.67108    2.88322
       H     4.90942   14.71883    1.83839
       O     4.18335   14.33908    1.29301
      H1     4.36097   13.39815    1.19791
       H     4.77094   17.14808    6.84593
       O     5.54822   17.36952    6.36447
      H1     5.97489   18.04194    6.89648
       H     2.00144   14.45013    5.11220
       O     1.03965   14.41894    5.33187
      H1     0.56463   14.38829    4.48250
       H     8.44944   12.55326    6.54987
       O     9.02758   12.87009    5.87823
      H1     9.59914   13.47670    6.43466
       H    -0.02868   12.92812    5.85303
       O    -0.63054   12.19764    6.23050
      H1    -1.35098   12.80634    6.45542
       H     6.34980    8.64475    9.25904
       O     5.69946    9.23064    8.91218
      H1     4.94460    9.32120    9.61671
       H     2.83399   12.35863    7.78476
       O     2.01896   11.85877    7.90721
      H1     1.90678   11.59130    6.92761
       H     8.91325   13.54998    9.71771
       O     9.22007   14.50598    9.86593
      H1     8.41534   15.06379    9.82677
       H     6.62917   15.98890    7.60046
       O     7.06799   15.20511    7.93131
      H1     6.49779   14.52738    7.55553
       H     5.21194   12.80134    7.71543
       O     4.31967   13.13610    7.77036
      H1     4.14110   13.55730    6.87952
       H     1.73348   13.18648   10.43245
       O     1.73446   14.13152   10.42617
      H1     1.32925   14.37924    9.53692
       H     6.70246   11.10988    7.64949
       O     6.72532   11.93056    7.12014
      H1     6.62183   11.59478    6.25662
       H     4.78232    7.80835    5.90806
       O     5.05070    8.75426    5.87055
      H1     5.39598    8.97950    6.74451
       H     0.29982   16.09631    8.50045
       O     0.42935   15.19024    8.17858
      H1     1.17475   15.35405    7.52003
       H     5.97077   11.78856   10.67017
       O     6.90347   11.88794   10.78508
      H1     7.09993   11.86086    9.81065
       H     1.74104   17.28413    5.86783
       O     2.66248   17.29977    6.08824
      H1     2.85194   18.21543    5.73524
       H     4.46503   14.15944    9.31174
       O     4.22728   14.38372   10.24841
      H1     3.29217   14.36362   10.13733
       H     6.79675   15.63822    3.02753
       O     6.35167   15.86627    2.22390
      H1     7.09958   16.19450    1.70122
       H     3.53459   15.67881    5.45872
       O     3.92102   14.76443    5.43955
      H1     4.54697   14.90344    4.69797
       H     2.66960    8.21035    6.80550
       O     2.18702    7.96482    6.03285
      H1     2.07014    8.90828    5.66168
       H     6.04328   14.50618   11.29954
       O     6.65324   14.92922   11.87830
      H1     7.56511   14.65226   11.60318
       H     4.64775   16.62174   11.29448
       O     4.47047   16.85699   12.21133
      H1     4.53451   15.94123   12.52186
       H     3.36856   10.66283    5.13090
       O     2.42278   10.87073    5.02927
      H1     2.36626   11.16115    4.07782
       H     2.47854   10.25051   10.29713
       O     1.99684   11.08568   10.45924
      H1     2.19362   11.43457    9.59874
       H     5.21591   11.25145    3.84942
       O     5.92972   11.67024    4.38159
      H1     6.66178   11.14728    4.02349

