90
frame 0 | Written by MDAnalysis XYZWriter (release 2.4.3)
       H    -5.20305  -13.11162  -15.19382
       O    -5.75943  -13.31423  -14.45930
      H1    -6.66636  -13.36218  -14.85806
       H   -11.78536  -15.32789  -13.08879
       O   -11.62585  -15.44152  -14.09642
      H1   -12.18418  -16.22978  -14.22614
       H    -9.02446  -13.09917  -14.46935
       O    -8.45022  -13.46220  -15.17165
      H1    -8.21632  -12.69277  -15.69952
       H   -12.73065  -12.44941   -9.13823
       O   -12.67803  -13.09493   -9.87179
      H1   -12.08657  -13.74059   -9.53131
       H   -13.71272  -19.24883  -16.90191
       O   -14.12928  -18.33649  -16.80920
      H1   -13.37334  -17.73426  -16.79320
       H    -6.25645  -18.38482  -11.57871
       O    -6.06088  -19.14493  -10.99098
      H1    -5.40052  -18.75065  -10.41375
       H   -10.81346  -17.87300  -10.10117
       O   -10.11215  -17.39374  -10.55016
      H1   -10.49617  -16.52305  -10.50876
       H    -5.92065  -18.72402  -15.37581
       O    -4.95865  -18.55777  -15.47009
      H1    -4.83475  -17.74468  -15.01193
       H   -13.97123  -17.68674  -14.43575
       O   -13.25735  -17.65531  -13.79977
      H1   -13.66889  -17.54388  -12.94137
       H    -8.91312  -17.38617  -18.22029
       O    -8.16665  -17.05530  -17.69750
      H1    -8.31499  -16.05803  -17.86351
       H    -6.92869  -14.30832   -8.46093
       O    -7.90190  -14.26638   -8.75714
      H1    -8.12105  -13.28152   -8.59197
       H    -4.76268  -15.19762  -14.01968
       O    -5.07176  -16.14268  -14.02220
      H1    -4.54332  -16.44224  -13.27703
       H    -9.65700  -12.18080  -13.01567
       O   -10.37684  -12.63764  -13.51147
      H1   -11.08108  -11.96445  -13.55149
       H    -9.67571  -13.93288  -16.61592
       O   -10.14404  -13.88610  -17.51552
      H1   -10.98231  -14.34149  -17.31925
       H   -12.53040  -15.28112  -16.31666
       O   -12.70529  -15.69569  -17.17473
      H1   -13.56016  -15.24371  -17.42392
       H    -5.74949  -13.69784  -11.57834
       O    -5.42210  -13.11567  -10.82247
      H1    -4.62082  -12.73734  -11.21813
       H    -6.44913  -16.85833  -13.32070
       O    -7.13217  -17.14795  -12.67306
      H1    -7.53682  -17.89586  -13.10431
       H    -7.79677  -15.39598  -11.77819
       O    -7.98207  -14.44261  -11.64999
      H1    -7.85380  -14.40108  -10.68143
       H   -12.92334  -14.14750  -11.21019
       O   -13.12961  -14.90158  -11.81135
      H1   -13.32190  -15.62774  -11.14549
       H    -8.71599  -17.80077   -9.25968
       O    -8.06910  -18.39664   -8.82079
      H1    -7.43792  -18.55079   -9.56252
       H   -10.21355  -19.25559  -16.90273
       O   -10.44172  -19.60969  -16.05601
      H1   -10.41383  -18.89424  -15.44868
       H    -7.57718  -11.18430  -12.71526
       O    -8.14419  -11.66991  -12.09497
      H1    -7.67366  -12.56212  -12.02674
       H   -14.43625  -17.95050  -10.75145
       O   -13.55201  -17.72321  -11.01271
      H1   -13.09632  -18.20371  -10.30852
       H   -13.20502  -12.80000  -15.37850
       O   -12.33010  -13.13406  -15.64280
      H1   -12.00259  -13.52877  -14.81534
       H    -9.47068  -17.98711  -13.72437
       O    -9.62098  -18.56540  -12.94766
      H1    -9.93211  -17.96648  -12.25170
       H    -5.94167  -17.12047  -17.45249
       O    -5.25853  -17.07271  -18.13683
      H1    -4.51674  -16.56303  -17.71880
       H   -11.25919  -16.65742  -18.53044
       O   -10.62114  -16.70866  -19.27369
      H1   -11.25850  -16.74719  -19.98320
       H   -16.35129  -16.40630  -17.14485
       O   -15.90376  -15.64866  -16.71388
      H1   -15.15237  -16.18409  -16.35886
       H   -10.90698  -15.11247   -8.34751
       O   -11.01606  -14.85510   -9.29162
      H1   -10.08916  -14.60039   -9.41413
       H    -8.82980  -16.68098  -15.81187
       O    -9.66000  -16.92625  -15.32269
      H1    -9.96410  -16.06775  -14.82199

