90
frame 0 | Written by MDAnalysis XYZWriter (release 2.4.3)
       H    -0.91714  -15.17438  -11.48663
       O    -1.88305  -15.05977  -11.40057
      H1    -2.15866  -14.48347  -12.12355
       H     1.87424  -15.11866  -10.26591
       O     0.93040  -15.02547   -9.99938
      H1     1.07675  -14.73924   -9.01671
       H    -1.83676  -10.08409   -8.97288
       O    -1.52877   -9.95605   -9.88590
      H1    -0.62318  -10.26615   -9.87910
       H     2.04915  -12.95138  -12.49683
       O     3.06358  -12.85889  -12.38315
      H1     3.29813  -13.07042  -13.32894
       H     3.39584  -14.44500  -11.58493
       O     3.44728  -15.21076  -10.97435
      H1     3.45959  -15.97568  -11.54381
       H     3.61665  -12.25354   -8.62817
       O     2.69255  -12.06919   -8.34363
      H1     2.83319  -11.95778   -7.38716
       H     3.36238   -7.47671   -6.18156
       O     2.78589   -7.51337   -6.96261
      H1     3.16895   -8.24729   -7.49820
       H    -0.55171   -7.83390  -11.90230
       O    -0.05767   -7.33424  -12.51428
      H1     0.86297   -7.68272  -12.41602
       H     1.94566  -10.62437  -10.53664
       O     1.38317   -9.88647  -10.71545
      H1     1.96999   -9.06880  -10.76875
       H     1.97195  -13.69083   -7.66406
       O     1.75689  -14.61275   -7.54226
      H1     0.87128  -14.46763   -7.24680
       H     2.07772   -6.63891  -10.90298
       O     2.45794   -7.50552  -11.21551
      H1     3.12748   -7.23565  -11.89551
       H     5.49687  -14.58587  -11.51646
       O     6.45543  -14.70346  -11.79378
      H1     6.90814  -13.87483  -11.70364
       H    -2.79704  -10.93241  -11.04616
       O    -3.59166  -11.09478  -11.57763
      H1    -4.29925  -10.67381  -11.04699
       H    -1.85277  -14.18891  -14.28644
       O    -1.96217  -13.45439  -13.62796
      H1    -1.07518  -13.28476  -13.29848
       H     0.94138   -6.39764  -15.45451
       O     0.83303   -7.31599  -15.13051
      H1     0.21529   -7.32386  -14.39327
       H    -1.80269   -8.84254   -7.15781
       O    -2.53567   -9.45804   -7.33283
      H1    -3.29885   -8.89296   -7.38368
       H     1.29721   -8.48297   -7.17289
       O     0.57713   -8.84982   -7.68237
      H1     1.15216   -9.12529   -8.43432
       H     3.97159  -10.80251   -5.00270
       O     3.16746  -10.69626   -5.51259
      H1     2.45316  -11.12865   -5.04946
       H    -2.04279   -7.01321  -10.61771
       O    -1.41511   -7.39636   -9.94950
      H1    -1.59262   -8.33176  -10.02652
       H     4.27977   -6.76713   -7.71978
       O     4.96093   -6.14948   -8.00336
      H1     4.43256   -5.33181   -8.06854
       H     1.65884   -9.02997  -14.57674
       O     2.30779   -9.72387  -14.46401
      H1     1.75894  -10.43121  -14.10092
       H     0.14552  -12.12203  -12.12653
       O     0.48397  -13.04704  -12.12527
      H1     0.63972  -13.04884  -11.18238
       H     5.25986   -6.79410   -9.70004
       O     5.50246   -7.05696  -10.63910
      H1     4.63877   -7.48003  -10.85263
       H     3.58601   -9.25906   -9.37710
       O     3.75219   -9.59019   -8.42294
      H1     3.41287  -10.50086   -8.25908
       H     6.55770  -12.72266   -9.38969
       O     5.97282  -12.78241   -8.64544
      H1     6.35060  -13.53403   -8.26885
       H    -0.93307   -9.99821  -13.04169
       O    -0.15094  -10.51607  -12.96213
      H1     0.41505  -10.06877  -12.27704
       H     3.82935   -6.56860  -14.16201
       O     3.97031   -7.33662  -13.53440
      H1     3.52692   -8.07158  -14.02313
       H     7.15073   -9.97340   -8.83143
       O     6.90475   -9.95062   -7.94672
      H1     5.96427  -10.00844   -8.16151
       H     4.54013  -11.25892  -15.90470
       O     4.51744  -10.32194  -15.86298
      H1     3.67148  -10.24430  -15.41155
       H     4.19572  -11.35255  -11.54204
       O     4.72550  -10.57143  -11.48806
      H1     5.53458  -10.99987  -11.78346

