90
frame 1 | Written by MDAnalysis XYZWriter (release 2.4.3)
       H    -7.60822  -12.49130    2.99214
       O    -8.19710  -13.24202    3.10574
      H1    -7.58217  -13.96487    2.99831
       H   -10.16961  -14.65967    0.78805
       O   -10.21790  -13.71330    0.57495
      H1    -9.50018  -13.14217    0.89395
       H   -14.25423  -16.81127    5.62318
       O   -14.26732  -17.39465    6.36392
      H1   -13.58495  -17.02360    6.91531
       H   -10.34255  -16.09130    4.42347
       O    -9.72535  -15.35195    4.27496
      H1   -10.21950  -14.70123    3.77062
       H   -12.44877  -15.49992    6.15191
       O   -12.47448  -15.40050    7.13125
      H1   -12.17653  -14.47471    7.24936
       H    -8.34466  -10.97142   -2.11887
       O    -8.46868  -11.83429   -1.71189
      H1    -7.68361  -11.90058   -1.18922
       H   -11.33722  -13.54866   -3.40380
       O   -11.53977  -14.18141   -4.05402
      H1   -10.79206  -14.80158   -3.95701
       H    -7.88964  -14.29613   -0.71180
       O    -8.01154  -15.09929   -1.26532
      H1    -8.35062  -15.69595   -0.54669
       H   -16.24504  -12.43590   -1.21654
       O   -16.54893  -13.07010   -0.53475
      H1   -17.49609  -12.94329   -0.60734
       H   -12.89842  -10.96985   -1.20763
       O   -13.48986  -11.03020   -0.42363
      H1   -13.62841  -11.99784   -0.37594
       H   -12.47870  -16.22054    3.65034
       O   -12.20743  -16.52991    4.52791
      H1   -12.46811  -17.48383    4.45002
       H   -14.13534  -14.22715    0.15122
       O   -13.86116  -13.77822   -0.68527
      H1   -14.81020  -13.54667   -0.85920
       H   -17.49384  -11.26002    1.66862
       O   -16.65179  -10.91708    1.30460
      H1   -16.37790  -11.65230    0.76220
       H   -10.35250  -10.81458    3.69798
       O   -10.68145  -11.45217    4.34698
      H1    -9.95860  -12.12500    4.25492
       H   -13.77925   -9.70878    1.25411
       O   -14.36352   -9.59467    2.07401
      H1   -15.12319  -10.17267    1.79239
       H   -11.63780  -12.78561   -1.12656
       O   -11.55560  -12.21376   -1.88696
      H1   -10.62703  -11.93229   -1.86425
       H   -14.50005  -14.49087    3.57410
       O   -14.86621  -15.20206    4.13013
      H1   -15.16034  -14.65127    4.83636
       H   -15.74715  -15.05979   -3.21576
       O   -15.18869  -15.72584   -2.76702
      H1   -14.52131  -15.22424   -2.25727
       H   -11.46226  -12.10560    5.92558
       O   -11.90714  -12.30303    6.76364
      H1   -12.79573  -12.00067    6.66501
       H   -15.89961  -16.64264   -1.55949
       O   -16.40695  -17.07109   -0.83263
      H1   -16.96292  -16.29680   -0.61414
       H    -8.04129  -13.11357    5.51231
       O    -8.87927  -13.41527    5.89124
      H1    -9.07866  -14.19716    5.31008
       H   -11.50519  -10.13476    0.37803
       O   -11.33004   -9.18495    0.31080
      H1   -10.43534   -9.15282    0.68584
       H   -14.87932  -17.50056   -0.22288
       O   -13.90616  -17.85499   -0.30458
      H1   -13.86259  -18.18764   -1.28936
       H   -16.23746  -11.62006    4.53724
       O   -15.56043  -11.32136    5.09858
      H1   -14.85278  -11.25357    4.43800
       H   -12.58157  -17.11010    1.20849
       O   -11.72543  -17.11002    1.75865
      H1   -11.57973  -17.98048    2.03017
       H   -10.33582  -16.67781    1.09328
       O    -9.50199  -16.61527    0.57354
      H1    -8.87781  -17.04397    1.22442
       H   -12.47425  -11.43426    3.70180
       O   -13.36615  -11.77285    3.40957
      H1   -13.56506  -10.91310    2.91958
       H   -15.76224  -16.69109    3.76453
       O   -16.37834  -17.38275    3.43677
      H1   -16.65566  -17.84877    4.24220
       H   -12.25880  -14.09013    1.46788
       O   -13.04446  -14.21967    2.00816
      H1   -13.15559  -13.29951    2.40924
       H   -12.02680  -15.83726   -3.76262
       O   -12.24101  -16.75600   -3.54669
      H1   -11.40055  -17.18612   -3.28561

