90
frame 1 | Written by MDAnalysis XYZWriter (release 2.4.3)
       H    15.18197   16.80868   -2.11448
       O    15.51569   17.67696   -2.11528
      H1    16.46716   17.46320   -1.97770
       H     9.71647   13.20376   -8.38334
       O     9.16156   13.10089   -7.64562
      H1     9.58991   13.65384   -6.99138
       H     8.77373   15.40059   -5.03125
       O     9.49907   15.65924   -4.44491
      H1     9.20751   16.26645   -3.76095
       H    13.91372   17.30683   -3.82143
       O    12.99608   16.94301   -3.77249
      H1    12.70408   17.20763   -2.89000
       H    17.62501   17.02274   -6.43030
       O    17.03775   17.70527   -6.86498
      H1    17.68343   18.07306   -7.49025
       H    15.21982   17.91201    0.01087
       O    15.04233   18.52313    0.76800
      H1    15.56583   19.33881    0.49950
       H    13.50224   14.39557   -0.86097
       O    12.56973   14.40265   -0.59861
      H1    12.39910   13.47799   -0.48177
       H    11.96218   19.27424    0.71415
       O    12.45142   18.67747    1.26009
      H1    13.34853   18.90814    0.94282
       H    10.60506   12.60891   -1.44712
       O    11.02769   11.93931   -0.89318
      H1    10.61632   12.30823   -0.06845
       H    18.33832   18.56559   -0.68986
       O    18.55838   17.75279   -1.22280
      H1    18.77622   17.13658   -0.53174
       H    11.73921   14.70708   -7.97404
       O    12.05020   14.65819   -7.02395
      H1    11.79690   15.53530   -6.65570
       H    11.14880   14.99456  -10.44986
       O    11.00905   15.50881   -9.64198
      H1    11.88378   15.96082   -9.58011
       H     9.71575   14.74175    0.01985
       O     9.54900   15.46769    0.60476
      H1    10.44168   15.58255    0.97560
       H    14.07404   11.85127   -0.15808
       O    14.40640   11.71883   -1.02506
      H1    13.91815   10.93787   -1.34406
       H    19.75937   16.10524   -3.81926
       O    18.94692   16.64408   -3.77375
      H1    19.06953   16.98290   -2.86825
       H    11.73612   13.82359   -4.59709
       O    11.58148   12.87294   -4.37767
      H1    10.67721   12.61454   -4.52964
       H    16.05035   10.55975   -3.76634
       O    16.22890   11.52210   -3.47589
      H1    15.58274   11.63401   -2.75780
       H     9.40113   18.18923   -6.54698
       O     8.60459   18.54172   -6.09059
      H1     7.93623   18.64038   -6.79882
       H    13.52703   16.85773  -11.13514
       O    13.51144   17.54270  -10.46766
      H1    14.36663   17.46465   -9.94568
       H     8.52763   14.15342   -1.56520
       O     9.54360   14.14967   -1.66386
      H1     9.75766   14.57173   -2.52431
       H    10.83655   16.52422   -5.51438
       O    11.30747   17.12864   -6.18818
      H1    11.93888   17.64005   -5.62255
       H    18.14418   15.65418   -4.85584
       O    17.75486   15.15030   -5.57727
      H1    16.95443   14.76245   -5.21399
       H    15.78958   13.18806   -4.47432
       O    15.51177   14.07389   -4.35275
      H1    14.87715   14.19922   -5.12496
       H    16.19482   14.89750   -1.08577
       O    15.27361   15.15483   -1.28333
      H1    15.22066   14.77495   -2.23366
       H    13.70208   14.24596   -7.33268
       O    14.61307   13.96883   -7.16707
      H1    15.06653   14.70922   -7.59486
       H    13.07412   11.58178   -5.87343
       O    13.28437   10.68758   -6.07590
      H1    13.45311   10.59797   -7.05507
       H    12.15112   16.00711   -0.80238
       O    11.73436   16.86781   -0.98194
      H1    11.79172   17.26715   -0.11835
       H     7.03569   17.61986   -5.15727
       O     6.60813   17.74299   -4.27531
      H1     6.35433   18.71149   -4.20438
       H     8.64025   16.60063   -1.84337
       O     9.32181   17.13976   -2.27155
      H1    10.12244   17.02872   -1.73233
       H    16.12180   16.02443   -9.62058
       O    15.70269   16.29136   -8.80876
      H1    16.30128   16.79649   -8.27728

