90
frame 1 | Written by MDAnalysis XYZWriter (release 2.4.3)
       H     8.30599   -0.08246   -0.22019
       O     7.75671   -0.82726   -0.44244
      H1     8.25952   -1.54456   -0.02288
       H     7.13390    3.50152    4.83915
       O     7.84062    2.83207    4.79338
      H1     7.58319    2.22994    5.55825
       H     4.67209    5.87934    1.86970
       O     4.67001    5.13008    1.34543
      H1     3.72749    4.92647    1.17512
       H     1.91645    3.43247    1.29848
       O     2.41643    3.70420    0.48795
      H1     2.78444    2.88967    0.21098
       H    10.86283    8.35214   -1.68608
       O    10.50804    9.23694   -1.47944
      H1    10.75475    9.61059   -0.60376
       H    12.08266    2.86500   -1.04001
       O    12.07428    3.83152   -1.00593
      H1    13.00245    4.20208   -1.12210
       H     5.96994    4.88487    4.08142
       O     5.50142    4.74976    4.90783
      H1     5.94388    5.28998    5.62151
       H    12.96549    5.52214    4.81568
       O    12.90306    4.82127    4.13639
      H1    11.97671    4.68404    4.01880
       H     9.25034   -0.64958    2.71126
       O     8.90897   -0.44711    3.58156
      H1     8.33139    0.35897    3.52855
       H     9.85628    7.86248    4.78170
       O    10.26035    6.99019    4.71852
      H1    10.53716    6.95503    3.73503
       H     5.13666    2.98773    1.12467
       O     5.51455    2.22696    0.72554
      H1     6.04277    2.47334   -0.02658
       H     3.44190    7.50217    0.49794
       O     4.04897    8.03328    0.00250
      H1     4.36733    7.50439   -0.74021
       H    10.68974    4.92168    1.52090
       O    10.34188    4.05514    1.22767
      H1    10.82630    3.80965    0.45964
       H     8.20655    6.85706    4.30011
       O     7.45149    6.74450    3.71489
      H1     7.61374    7.28309    2.91165
       H     5.37619    9.09618    0.45333
       O     6.15805    9.59512    0.75060
      H1     6.67657    9.90169    0.01937
       H     7.48769    8.35820    0.97134
       O     8.17405    7.75691    1.19342
      H1     7.85620    6.86435    0.99771
       H     6.26908    1.63212    2.15337
       O     6.33521    1.40387    3.07498
      H1     6.90077    2.06177    3.51383
       H    11.42511    1.09161    2.30924
       O    10.58103    1.40714    1.98238
      H1    10.59328    2.39599    2.01762
       H     9.18332    4.87093   -3.19653
       O     9.57318    4.46708   -4.01926
      H1    10.45821    4.11354   -3.86476
       H     6.26959    2.69858   -2.02081
       O     7.09276    2.89709   -1.58634
      H1     7.74347    2.21632   -1.77922
       H     5.77393    7.47777   -2.82653
       O     4.81187    7.28392   -2.79223
      H1     4.44826    8.01538   -3.25639
       H     3.44560    4.32633   -2.35289
       O     4.34452    4.10199   -2.15993
      H1     4.96649    4.82227   -2.17230
       H     7.87310    6.72348   -2.26681
       O     7.48395    7.16111   -3.07710
      H1     7.92258    8.08998   -3.11413
       H     9.89497    7.18429    1.66644
       O    10.75350    6.84523    1.94250
      H1    11.40502    7.51524    1.71666
       H     4.10255    1.16814    0.36655
       O     3.28733    0.87585   -0.06677
      H1     2.98335    0.20336    0.52752
       H     5.74146    7.54881    3.16932
       O     5.01586    7.78299    2.60868
      H1     5.29935    8.22635    1.79452
       H     6.68306    4.86164    0.86517
       O     7.59156    5.14267    0.87876
      H1     8.14395    4.52735    1.35276
       H    10.42240    2.13521    4.53889
       O    10.51231    3.00097    4.89584
      H1     9.59566    3.33639    4.92474
       H     9.77823    6.10926   -1.01708
       O     9.13193    5.58333   -1.45934
      H1     8.82870    4.97478   -0.77383
       H     9.89677    1.62867   -1.31311
       O     9.39442    1.38581   -0.51394
      H1     9.92368    1.69060    0.19138

