90
frame 0 | Written by MDAnalysis XYZWriter (release 2.4.3)
       H    -6.39475   -7.70460  -11.97379
       O    -6.68642   -8.05831  -11.12658
      H1    -6.01781   -7.62975  -10.56123
       H    -5.20305  -13.11162  -15.19382
       O    -5.75943  -13.31423  -14.45930
      H1    -6.66636  -13.36218  -14.85806
       H   -11.78536  -15.32789  -13.08879
       O   -11.62585  -15.44152  -14.09642
      H1   -12.18418  -16.22978  -14.22614
       H   -11.71998   -9.99617  -11.76858
       O   -12.36427  -10.07772  -12.48794
      H1   -13.10896  -10.46650  -12.01709
       H   -10.02838   -8.08833   -9.65902
       O   -10.51556   -7.58836   -9.02924
      H1   -11.13341   -7.20074   -9.59457
       H    -9.02446  -13.09917  -14.46935
       O    -8.45022  -13.46220  -15.17165
      H1    -8.21632  -12.69277  -15.69952
       H   -10.25477   -9.81760  -16.40597
       O    -9.67877   -9.42219  -15.78756
      H1    -9.30045  -10.25798  -15.35428
       H    -8.87087   -7.10111  -12.14760
       O    -9.34425   -6.96796  -12.91088
      H1    -9.30270   -5.98916  -13.07822
       H   -11.61854   -7.55897  -12.29964
       O   -12.17731   -7.13918  -11.59975
      H1   -13.07928   -7.24139  -11.89786
       H   -12.73065  -12.44941   -9.13823
       O   -12.67803  -13.09493   -9.87179
      H1   -12.08657  -13.74059   -9.53131
       H   -10.81346  -17.87300  -10.10117
       O   -10.11215  -17.39374  -10.55016
      H1   -10.49617  -16.52305  -10.50876
       H   -10.77982  -12.09717  -17.35960
       O   -10.68173  -11.23077  -17.83777
      H1   -10.07751  -11.48304  -18.55081
       H    -9.83626   -9.09971   -7.95752
       O   -10.00286   -9.92075   -7.51694
      H1    -9.43425  -10.54184   -7.90472
       H    -6.45080   -8.97398  -13.87989
       O    -7.21411   -9.50181  -13.74292
      H1    -7.96156   -8.83498  -13.87963
       H    -6.92869  -14.30832   -8.46093
       O    -7.90190  -14.26638   -8.75714
      H1    -8.12105  -13.28152   -8.59197
       H    -9.65700  -12.18080  -13.01567
       O   -10.37684  -12.63764  -13.51147
      H1   -11.08108  -11.96445  -13.55149
       H    -9.67571  -13.93288  -16.61592
       O   -10.14404  -13.88610  -17.51552
      H1   -10.98231  -14.34149  -17.31925
       H    -5.90973  -11.31232  -10.48998
       O    -5.80028  -10.47220   -9.98519
      H1    -6.48426   -9.87798  -10.51426
       H   -12.53040  -15.28112  -16.31666
       O   -12.70529  -15.69569  -17.17473
      H1   -13.56016  -15.24371  -17.42392
       H    -5.74949  -13.69784  -11.57834
       O    -5.42210  -13.11567  -10.82247
      H1    -4.62082  -12.73734  -11.21813
       H   -11.77987   -8.82856  -13.83852
       O   -11.64863   -8.07072  -14.45812
      H1   -10.92688   -8.46501  -14.94350
       H    -7.79677  -15.39598  -11.77819
       O    -7.98207  -14.44261  -11.64999
      H1    -7.85380  -14.40108  -10.68143
       H   -12.92334  -14.14750  -11.21019
       O   -13.12961  -14.90158  -11.81135
      H1   -13.32190  -15.62774  -11.14549
       H    -7.57718  -11.18430  -12.71526
       O    -8.14419  -11.66991  -12.09497
      H1    -7.67366  -12.56212  -12.02674
       H    -6.72861  -10.73122  -16.91055
       O    -7.50363  -11.29136  -17.05246
      H1    -7.83468  -10.94258  -17.91125
       H    -9.54962  -10.40921  -10.13841
       O    -9.25361   -9.51108  -10.57559
      H1    -8.40035   -9.80139  -10.89572
       H   -10.84339  -12.49605   -9.96586
       O   -10.06478  -11.98146   -9.84334
      H1    -9.58611  -12.09263  -10.67813
       H   -13.20502  -12.80000  -15.37850
       O   -12.33010  -13.13406  -15.64280
      H1   -12.00259  -13.52877  -14.81534
       H   -10.90698  -15.11247   -8.34751
       O   -11.01606  -14.85510   -9.29162
      H1   -10.08916  -14.60039   -9.41413
       H    -8.82980  -16.68098  -15.81187
       O    -9.66000  -16.92625  -15.32269
      H1    -9.96410  -16.06775  -14.82199

