90
frame 1 | Written by MDAnalysis XYZWriter (release 2.4.3)
       H   -17.99235   11.53808   -8.44217
       O   -17.36423   12.02656   -8.97208
      H1   -17.32756   12.86125   -8.56492
       H   -13.36570   12.02369  -18.37549
       O   -14.06528   11.70047  -18.96951
      H1   -13.87563   10.71548  -18.87913
       H   -12.50763    9.21737  -14.58664
       O   -13.37220    9.64186  -14.19255
      H1   -13.97883    8.96438  -14.58174
       H   -17.55709   16.66611  -17.68231
       O   -16.79515   16.05768  -17.63014
      H1   -16.26100   16.55281  -18.23552
       H   -19.16346   14.84028  -10.75291
       O   -19.62624   15.23816  -10.03041
      H1   -19.02710   15.98386   -9.80472
       H   -16.22869   14.78078  -14.36115
       O   -16.15053   15.38763  -13.56761
      H1   -16.70578   14.93690  -12.93887
       H   -12.51960    9.87825  -12.42565
       O   -12.63949    9.71515  -11.46838
      H1   -12.90221   10.62497  -11.20625
       H   -14.76669   15.92033  -12.44623
       O   -13.99021   16.46559  -12.13961
      H1   -13.80554   17.06677  -12.85123
       H   -16.16901    5.64753  -14.06769
       O   -16.76847    6.27877  -14.54075
      H1   -17.59073    5.87384  -14.33946
       H   -14.71729   10.67239   -8.45329
       O   -14.69275   11.46734   -7.96213
      H1   -15.55521   11.92896   -8.20736
       H   -11.53028    7.85341  -15.21152
       O   -11.23908    8.76197  -15.19672
      H1   -11.46948    9.10516  -16.07038
       H   -17.18077    7.26027  -17.38805
       O   -17.58733    6.38512  -17.09619
      H1   -17.12538    6.35476  -16.27226
       H   -11.73610    9.16630  -18.65145
       O   -11.85625    9.57662  -17.79614
      H1   -11.68056   10.50747  -17.94851
       H   -16.16948   12.05864  -15.01719
       O   -16.41087   11.37502  -14.35229
      H1   -15.92336   11.78492  -13.60145
       H   -16.72743   13.72395  -17.63817
       O   -16.77495   13.13766  -18.38869
      H1   -16.08502   12.44865  -18.14584
       H   -19.15196   16.84683  -12.70413
       O   -18.28722   17.24261  -12.51558
      H1   -17.60028   16.59480  -12.83676
       H   -12.79104    8.02106  -11.95573
       O   -13.04583    7.15616  -12.29138
      H1   -12.41620    6.84777  -12.95138
       H   -12.86399   13.02738  -14.27615
       O   -12.04400   12.99352  -13.80323
      H1   -11.82629   13.93572  -13.70849
       H   -13.66855   11.38856  -15.42521
       O   -13.82140   12.21896  -15.85052
      H1   -12.97529   12.63660  -16.01766
       H   -13.68916   12.28206   -9.39069
       O   -13.17448   12.23807  -10.24726
      H1   -12.50253   12.92964  -10.13521
       H   -10.27843   12.19164  -16.98791
       O   -11.20186   12.46068  -17.16797
      H1   -11.02912   13.19458  -17.72727
       H   -18.85301   13.76625  -12.56366
       O   -18.06921   14.06928  -12.04843
      H1   -17.53173   13.25716  -12.16929
       H   -17.59808   10.11808  -11.45168
       O   -16.76680   10.32257  -10.96722
      H1   -17.12905   10.94485  -10.31566
       H   -17.38267    9.61839  -18.07434
       O   -16.45418    9.26333  -17.92252
      H1   -16.41879    9.32785  -16.92050
       H   -15.90400   11.61784  -11.57419
       O   -15.76173   12.50375  -11.98672
      H1   -14.89640   12.77861  -11.66181
       H   -19.25123   12.07319  -13.97183
       O   -18.77021   12.55528  -14.67129
      H1   -17.90211   12.12409  -14.55930
       H   -16.05056    9.56743  -14.56600
       O   -15.83891    8.85300  -15.14535
      H1   -16.23136    8.09502  -14.63471
       H   -15.49817    9.46315   -9.86682
       O   -14.86883    9.12925   -9.17806
      H1   -14.01496    8.90759   -9.66166
       H   -17.66126   13.85710  -15.46365
       O   -16.76010   14.07063  -15.79412
      H1   -16.92115   14.87196  -16.33772
       H   -19.08066   11.08385  -18.14089
       O   -19.02215   10.25816  -18.67858
      H1   -18.62201   10.68596  -19.41105

