90
frame 1 | Written by MDAnalysis XYZWriter (release 2.4.3)
       H   -18.53864  -16.75397    7.26482
       O   -19.39553  -16.45558    7.64606
      H1   -19.04992  -15.68984    8.17906
       H   -15.47329  -10.45788   12.55486
       O   -15.20254  -10.15777   13.43284
      H1   -15.03429   -9.23891   13.21879
       H   -16.77930  -11.79272   16.21301
       O   -16.85431  -11.49272   15.29365
      H1   -15.97250  -11.44207   15.00632
       H   -18.00792  -13.57483    6.47278
       O   -18.53193  -12.80577    6.49378
      H1   -18.16590  -12.32285    7.27722
       H   -19.31936   -9.49381    6.74674
       O   -18.36095   -9.30339    6.88797
      H1   -18.21585   -8.49513    6.46036
       H   -11.04802  -12.19276   12.20950
       O   -11.00379  -12.51861   11.29465
      H1   -11.85367  -12.89540   11.18229
       H   -19.31528   -6.36482   11.91375
       O   -18.36922   -6.39169   12.05026
      H1   -18.25496   -7.09563   12.67840
       H   -17.22987  -10.95264    9.61209
       O   -16.95919  -11.17307    8.74506
      H1   -17.48485  -10.57502    8.19783
       H   -14.44790   -5.99214   11.14805
       O   -14.35238   -6.70752   10.52129
      H1   -14.02292   -6.31495    9.68612
       H   -16.09463  -14.48878    9.25459
       O   -15.22177  -14.63524    8.96837
      H1   -15.16774  -15.59613    8.86201
       H   -18.44234  -10.64421   12.18958
       O   -17.84144  -11.04742   11.58309
      H1   -17.81179  -11.98633   11.85377
       H   -15.01132  -11.60164    8.72744
       O   -14.14299  -11.95969    8.58863
      H1   -14.23349  -12.91552    8.47354
       H   -13.31419   -7.45639   12.22145
       O   -13.79971   -7.66588   13.06581
      H1   -13.30630   -7.18926   13.75319
       H   -18.06609  -14.07993   10.75290
       O   -18.02912  -14.13357    9.78246
      H1   -18.44968  -13.22094    9.58655
       H   -12.92011  -14.96575   11.28754
       O   -12.78712  -14.48475   10.45565
      H1   -13.71439  -14.52769   10.03555
       H   -13.63744   -7.34388    6.77367
       O   -13.59908   -6.83972    7.61105
      H1   -13.56927   -5.90372    7.28145
       H   -13.26473   -9.80527   13.94360
       O   -12.46922  -10.30190   14.16441
      H1   -12.82011  -11.07254   14.67133
       H   -11.46226  -12.10560    5.92558
       O   -11.90714  -12.30303    6.76364
      H1   -12.79573  -12.00067    6.66501
       H   -15.44130  -14.19697    7.13965
       O   -15.83789  -13.87621    6.29938
      H1   -15.32870  -13.02694    6.15249
       H   -17.86286  -10.26393   14.44230
       O   -18.46703   -9.61027   14.22971
      H1   -17.83393   -8.86383   14.16513
       H   -16.23746  -11.62006    4.53724
       O   -15.56043  -11.32136    5.09858
      H1   -14.85278  -11.25357    4.43800
       H   -16.28224   -4.49197   10.93318
       O   -16.97199   -4.65587   10.27426
      H1   -17.54297   -5.24497   10.87260
       H   -14.31640  -15.44301   13.64219
       O   -14.15822  -14.69802   14.23249
      H1   -14.82825  -14.09826   13.92427
       H   -17.19043  -13.55083    4.89132
       O   -17.34656  -13.36501    3.89424
      H1   -17.72214  -14.06785    3.43166
       H   -13.57563   -9.22653    6.20292
       O   -14.16747   -8.65828    5.67964
      H1   -14.97214   -9.19797    5.55915
       H   -17.46483  -14.20778   13.25643
       O   -17.15588  -13.30962   13.10952
      H1   -17.28726  -12.74354   13.94435
       H   -12.05586  -10.45135    7.49025
       O   -12.13150   -9.49216    7.65029
      H1   -12.64081   -9.53194    8.42648
       H   -16.77286   -6.04173    9.35505
       O   -16.93451   -6.90079    8.92407
      H1   -16.13933   -7.42786    9.15910
       H   -16.35112   -5.91860    7.47165
       O   -16.38765   -5.38624    6.61412
      H1   -17.30682   -5.48899    6.34748
       H   -18.61280   -7.68256    9.44718
       O   -19.54434   -7.80124    9.33978
      H1   -19.60080   -7.92784    8.40500

