90
frame 1 | Written by MDAnalysis XYZWriter (release 2.4.3)
       H   -17.99235   11.53808   -8.44217
       O   -17.36423   12.02656   -8.97208
      H1   -17.32756   12.86125   -8.56492
       H   -17.47977   15.71358   -3.20358
       O   -17.63556   15.06419   -3.92055
      H1   -17.31453   14.22688   -3.52459
       H   -12.79679   18.54572   -3.82243
       O   -12.33206   17.68809   -3.61989
      H1   -12.05849   17.85249   -2.64606
       H   -14.27870   20.09280   -8.76549
       O   -15.09286   19.75791   -8.38608
      H1   -15.31356   19.08829   -9.00942
       H   -16.37842   17.16866   -9.96631
       O   -15.43489   17.46236   -9.85915
      H1   -15.17988   17.31330  -10.74735
       H   -14.71729   10.67239   -8.45329
       O   -14.69275   11.46734   -7.96213
      H1   -15.55521   11.92896   -8.20736
       H   -16.57016   16.62318   -6.26546
       O   -16.11263   15.91117   -5.87593
      H1   -16.85268   15.52120   -5.32358
       H   -16.63136   19.12961   -6.77049
       O   -17.07237   18.27816   -6.76376
      H1   -17.77748   18.52511   -6.12987
       H   -11.65922   13.80526   -3.09870
       O   -10.72181   13.92821   -2.78134
      H1   -10.36022   13.01490   -2.76676
       H   -18.28201   17.89161   -1.70140
       O   -17.49027   17.40654   -2.02175
      H1   -16.96066   17.34894   -1.17017
       H   -13.89658   18.50229    1.08852
       O   -14.29511   18.68971    0.19957
      H1   -14.06834   19.63056    0.18110
       H   -11.23968   17.04435   -6.96431
       O   -10.29570   17.16170   -6.93751
      H1   -10.04784   17.20285   -5.99358
       H   -13.01810   15.09487   -7.61448
       O   -12.68593   15.97338   -7.92293
      H1   -13.22038   16.61522   -7.48196
       H   -15.20847   16.14044   -4.13721
       O   -14.65844   16.09611   -3.38093
      H1   -13.93136   16.69631   -3.68660
       H   -16.33744   15.12080   -8.72124
       O   -16.02309   14.37697   -8.21062
      H1   -15.92387   14.78261   -7.34113
       H   -15.09080   12.75266   -0.67319
       O   -15.77761   13.28544   -0.23644
      H1   -15.42348   14.17501   -0.19072
       H   -12.26937   19.00311   -6.06283
       O   -11.93720   19.90221   -6.38021
      H1   -11.09504   19.96323   -5.83883
       H   -10.50825   15.47072   -3.64781
       O   -10.07230   16.27060   -3.93711
      H1   -10.70351   16.98495   -3.82481
       H   -14.86208   16.80932   -0.79600
       O   -14.89605   15.82571   -0.61599
      H1   -14.61558   15.52989   -1.50484
       H   -10.70310   14.92004   -1.34967
       O   -11.09098   15.03729   -0.42920
      H1   -11.44242   15.99995   -0.58513
       H   -14.50312   11.12164   -5.87528
       O   -14.57164   11.23480   -4.92985
      H1   -14.55326   10.24956   -4.73365
       H   -12.82085   13.78222   -5.59486
       O   -12.65328   13.59660   -6.49336
      H1   -11.74543   13.87740   -6.52408
       H   -16.43427   18.85408   -4.77323
       O   -16.14845   19.08089   -3.84178
      H1   -16.53976   18.49787   -3.18535
       H   -14.38398   18.29464   -7.16935
       O   -13.87414   17.87553   -6.48148
      H1   -14.60042   17.30767   -6.21360
       H   -17.00548   17.18587    1.22024
       O   -16.96173   18.06864    0.72469
      H1   -16.03399   18.29129    0.82281
       H   -13.45352   15.29530    0.64361
       O   -13.13197   14.57114    1.18107
      H1   -12.22330   14.54336    0.84429
       H   -17.45531   11.91860   -3.69442
       O   -16.63242   12.40576   -3.35232
      H1   -15.99720   11.93457   -3.93216
       H   -13.52086   10.59558   -0.84921
       O   -13.45438   11.55432   -0.88008
      H1   -12.55852   11.67384   -1.29821
       H   -12.79806   17.98049   -0.57257
       O   -12.05918   17.48166   -0.83582
      H1   -11.39019   18.10028   -0.34866
       H   -13.92942   14.36351   -3.64681
       O   -13.16890   13.77479   -3.93722
      H1   -13.63902   12.97955   -4.21428

