90
frame 2 | Written by MDAnalysis XYZWriter (release 2.4.3)
       H     3.50619  -17.82043  -13.76975
       O     3.45117  -18.47937  -14.48559
      H1     3.98160  -19.25838  -14.38451
       H    -4.75844  -11.55984  -15.73784
       O    -4.25963  -12.37374  -15.37962
      H1    -3.78703  -12.83481  -16.12569
       H     0.60309  -18.89787  -15.91714
       O     0.89187  -18.71168  -14.97529
      H1     1.88771  -18.62814  -14.94331
       H     0.68796  -10.84569  -11.63590
       O     0.87721  -10.39506  -12.49987
      H1     0.69729  -10.99691  -13.19197
       H     4.94748  -16.21811  -15.52769
       O     5.21959  -15.68894  -14.74235
      H1     5.77921  -16.22447  -14.15130
       H    -4.74353  -17.77556  -16.02731
       O    -3.97400  -17.21377  -16.00339
      H1    -3.48967  -17.36434  -15.20563
       H     3.15091  -16.73342  -16.91405
       O     4.05228  -17.12763  -16.74475
      H1     3.87502  -17.64526  -15.96696
       H    -1.98226  -11.48948  -18.43003
       O    -1.10001  -11.70082  -18.12265
      H1    -0.57805  -11.80815  -18.89333
       H    -5.18584  -15.30110  -15.57700
       O    -6.03043  -14.95083  -15.70698
      H1    -5.90153  -14.03113  -15.43997
       H    -2.93372  -16.90644  -12.98110
       O    -2.33454  -17.16749  -13.68419
      H1    -1.70592  -17.84101  -13.36667
       H     1.91449  -12.42335  -17.05237
       O     2.48626  -11.81324  -17.51517
      H1     2.76127  -11.20068  -16.82862
       H     0.03990  -15.31057  -13.61332
       O     0.42994  -15.56765  -14.48487
      H1     0.33663  -16.51705  -14.57523
       H     1.52710  -14.67988  -17.29592
       O     2.00501  -15.24897  -17.93341
      H1     2.92116  -14.93942  -18.07802
       H     2.49022  -18.87615  -11.37547
       O     2.42310  -17.92024  -11.14432
      H1     2.68212  -17.42964  -11.91058
       H    -2.31071  -13.50597  -17.81631
       O    -3.00194  -14.06519  -17.40342
      H1    -2.55409  -14.95969  -17.40281
       H     0.23070  -14.39492  -15.70022
       O     0.65000  -13.67388  -16.25028
      H1    -0.12275  -13.23084  -16.63352
       H     0.01061  -13.35355  -11.98963
       O    -0.00688  -13.18042  -12.93023
      H1    -0.92192  -12.72932  -13.12846
       H    -0.52972   -9.07339  -14.00431
       O    -0.84986   -8.31090  -13.52964
      H1    -0.95590   -8.68949  -12.64102
       H    -0.00026  -10.09571  -18.54319
       O     0.81976   -9.60788  -18.72830
      H1     1.46422  -10.16066  -18.25851
       H     3.36106  -15.65751  -13.79336
       O     2.71119  -16.09602  -13.23415
      H1     1.88206  -15.86368  -13.70079
       H     3.99435  -13.29701  -18.95672
       O     4.46096  -14.06269  -18.47686
      H1     4.68522  -13.63432  -17.65668
       H     3.46171  -14.49538  -12.22826
       O     4.18325  -13.97006  -11.82139
      H1     5.00288  -14.05919  -12.34667
       H     5.39123  -10.16634  -13.88737
       O     5.09933  -10.65463  -14.68023
      H1     4.34847  -11.19581  -14.53792
       H    -0.54338  -16.66802  -17.44332
       O    -1.43826  -16.30941  -17.51459
      H1    -2.04709  -16.73829  -16.90753
       H    -1.11830  -19.81865  -12.96319
       O    -0.64022  -19.01529  -12.89546
      H1     0.06003  -19.05932  -13.57571
       H     0.73253  -18.14925  -18.58442
       O     1.08646  -17.91960  -17.68816
      H1     1.49190  -17.01914  -17.79277
       H     1.86354  -13.49917  -10.37705
       O     1.00123  -13.93490  -10.42814
      H1     0.70006  -14.29720   -9.56330
       H    -3.04078  -12.08973  -14.17176
       O    -2.31963  -11.72932  -13.64582
      H1    -2.63672  -11.39956  -12.77924
       H    -1.36337  -10.82692  -14.79963
       O    -0.49644  -10.62120  -15.19114
      H1    -0.56511  -10.93301  -16.08983
       H     2.95601  -12.94642  -13.46057
       O     3.10609  -12.63319  -14.32583
      H1     2.20595  -12.75189  -14.66624

