90
frame 0 | Written by MDAnalysis XYZWriter (release 2.4.3)
       H     7.43718  -16.78683  -10.63452
       O     7.87115  -17.44573  -11.16166
      H1     8.79648  -17.32221  -10.86479
       H     7.15954   -6.22707  -11.30529
       O     7.96707   -6.13016  -11.79999
      H1     7.69389   -5.57838  -12.52470
       H     4.50571  -15.02879  -14.23322
       O     4.71564  -15.73445  -13.61107
      H1     5.38272  -15.25416  -13.09832
       H     2.04915  -12.95138  -12.49683
       O     3.06358  -12.85889  -12.38315
      H1     3.29813  -13.07042  -13.32894
       H     9.21448  -11.99128   -7.14238
       O     8.33997  -12.09366   -6.64787
      H1     7.75599  -11.60287   -7.23304
       H    11.83254   -9.19490   -9.41426
       O    12.29097   -9.78748  -10.05299
      H1    11.66572  -10.52179  -10.09701
       H     3.61665  -12.25354   -8.62817
       O     2.69255  -12.06919   -8.34363
      H1     2.83319  -11.95778   -7.38716
       H     9.32454   -9.26098  -14.01563
       O     8.96530   -8.58577  -14.58751
      H1     9.55510   -7.86742  -14.40340
       H     5.49687  -14.58587  -11.51646
       O     6.45543  -14.70346  -11.79378
      H1     6.90814  -13.87483  -11.70364
       H    12.16758  -11.57570   -7.05307
       O    11.29955  -11.15122   -6.87033
      H1    11.58834  -10.31400   -6.41394
       H     8.19525  -14.26280   -7.20247
       O     8.08424  -15.10560   -7.58018
      H1     7.36875  -15.49551   -7.07489
       H    10.08294   -7.75808   -7.92953
       O    10.36867   -8.05614   -8.79778
      H1    10.34530   -7.19530   -9.26270
       H     9.25447   -9.26787  -10.61466
       O     8.34025   -9.46060  -10.69083
      H1     7.98647   -8.85377  -11.36718
       H     6.13066   -8.30539  -13.19397
       O     6.84880   -8.93937  -13.08228
      H1     7.53175   -8.52604  -13.64707
       H    10.48365  -12.07939  -15.81441
       O    10.57968  -12.64389  -14.99772
      H1     9.89766  -12.22132  -14.40176
       H     8.51287   -9.67489   -4.40124
       O     7.85059   -9.76437   -5.08015
      H1     8.19015  -10.39388   -5.77136
       H     9.75066   -6.17199  -11.90093
       O    10.61156   -5.92836  -12.23786
      H1    11.27613   -6.30447  -11.65593
       H     6.54415  -13.36080  -15.56601
       O     6.05158  -12.91492  -14.81644
      H1     6.82269  -12.49031  -14.41711
       H    11.71193  -13.81684   -8.34067
       O    10.75435  -13.86884   -8.56478
      H1    10.75956  -14.83426   -8.33246
       H     7.81116  -10.70773  -13.40219
       O     8.49613  -11.39494  -13.45429
      H1     8.72923  -11.55575  -12.54742
       H    12.27475   -9.74021  -14.52631
       O    11.66958   -9.14965  -14.09717
      H1    12.30495   -8.53138  -13.69241
       H     5.25986   -6.79410   -9.70004
       O     5.50246   -7.05696  -10.63910
      H1     4.63877   -7.48003  -10.85263
       H     3.58601   -9.25906   -9.37710
       O     3.75219   -9.59019   -8.42294
      H1     3.41287  -10.50086   -8.25908
       H     6.55770  -12.72266   -9.38969
       O     5.97282  -12.78241   -8.64544
      H1     6.35060  -13.53403   -8.26885
       H     7.15073   -9.97340   -8.83143
       O     6.90475   -9.95062   -7.94672
      H1     5.96427  -10.00844   -8.16151
       H    13.63528   -7.19769  -11.12139
       O    12.84225   -7.44091  -11.58394
      H1    12.64748   -8.29258  -11.24217
       H     6.55095   -7.74853   -7.35443
       O     7.28098   -7.43308   -6.83645
      H1     7.63625   -8.17722   -6.43278
       H    11.04753  -12.86042  -10.13588
       O    10.81768  -12.49751  -10.99349
      H1    11.40309  -12.93788  -11.62512
       H     8.75263  -12.61674  -10.45914
       O     7.86988  -12.27375  -10.72347
      H1     7.97132  -11.32354  -10.63337
       H     4.19572  -11.35255  -11.54204
       O     4.72550  -10.57143  -11.48806
      H1     5.53458  -10.99987  -11.78346

