90
frame 1 | Written by MDAnalysis XYZWriter (release 2.4.3)
       H   -18.08460    5.79764    9.96244
       O   -18.48930    6.68413   10.16557
      H1   -18.66184    7.02697    9.28156
       H   -17.11401   -0.89127    6.05599
       O   -17.36769   -1.78755    6.01469
      H1   -18.02264   -1.79227    6.72088
       H   -18.76189    3.90870   10.88969
       O   -18.13303    4.16820   10.18482
      H1   -17.32482    3.76711   10.58089
       H   -15.35275    7.24224   10.50411
       O   -15.66437    6.52321   11.06521
      H1   -16.60236    6.74669   11.26011
       H   -16.95040   -0.28499   11.73553
       O   -16.30989   -0.00538   12.37935
      H1   -16.81983    0.21216   13.19154
       H   -14.45174    1.09100    2.42425
       O   -14.20368    1.52683    3.23426
      H1   -14.73607    2.30517    3.31847
       H   -14.41239   -0.46246    9.92546
       O   -13.92411   -1.30483    9.90038
      H1   -14.51184   -1.79414    9.29569
       H   -11.11622    3.00956    7.57230
       O   -10.32961    3.46000    7.77583
      H1    -9.97615    3.61668    6.83049
       H   -13.16365    1.24071    9.21968
       O   -13.14457    1.81712    8.48909
      H1   -12.67501    1.24901    7.82782
       H   -15.98234    7.36851    4.82709
       O   -15.52395    7.29786    5.70207
      H1   -15.30880    8.21147    6.02268
       H   -17.89516    0.02046    1.47172
       O   -17.26222    0.28743    2.18453
      H1   -16.82465   -0.56553    2.29715
       H   -12.44955    0.60631    5.06195
       O   -12.31193    0.51629    6.04901
      H1   -11.88505   -0.36635    6.09291
       H   -11.75963    6.69882    9.16618
       O   -12.74936    6.75378    9.09011
      H1   -13.10983    5.95714    8.83870
       H   -17.92220    2.57215    1.81691
       O   -18.14386    3.28886    1.20738
      H1   -18.16060    2.94014    0.30349
       H   -15.53018    4.22551   10.75490
       O   -15.84041    3.50354   11.34005
      H1   -16.12961    3.91361   12.15051
       H   -14.71919    1.33272    8.04745
       O   -15.58934    0.98847    7.74282
      H1   -16.09711    1.83205    7.78449
       H   -19.03063    0.26203    5.49232
       O   -18.83728    0.94471    4.82055
      H1   -17.87918    0.79800    4.73227
       H   -16.31264    6.36366    6.94287
       O   -16.47789    5.64327    7.66415
      H1   -15.56812    5.51234    7.96658
       H   -16.19047    3.97497    3.86796
       O   -15.27651    3.99370    3.55607
      H1   -15.33616    4.11934    2.56135
       H   -15.77785    6.06816    2.88082
       O   -16.47790    6.66063    2.99351
      H1   -16.66902    6.89810    2.11892
       H   -17.63796    0.89001    8.96407
       O   -17.97030    0.10452    9.37804
      H1   -17.34271   -0.57118    9.07767
       H   -15.56305   -3.53967    8.43421
       O   -16.07924   -2.76373    8.39620
      H1   -15.85973   -2.34295    7.55846
       H   -13.88603    4.36207    7.45455
       O   -14.21280    4.45238    8.37622
      H1   -13.87162    3.63510    8.76794
       H   -13.95690    0.91625   11.85457
       O   -14.03439    1.42994   11.09457
      H1   -14.90680    1.79085   11.13528
       H   -14.31569    6.12146    5.74243
       O   -13.51900    5.55915    5.61568
      H1   -13.73851    5.21159    4.71055
       H   -15.27184   -1.54525    6.07414
       O   -14.37439   -1.50154    6.45319
      H1   -14.33411   -0.54233    6.50782
       H   -16.74603    4.08844    7.20310
       O   -17.18012    3.18245    7.05192
      H1   -18.08048    3.38080    7.29048
       H   -19.80535    7.06887    7.60864
       O   -19.24876    7.81452    7.29288
      H1   -18.66560    7.27665    6.69908
       H   -17.78139    3.49020    5.39933
       O   -17.82587    3.78401    4.46561
      H1   -18.22780    4.61956    4.52568
       H   -15.41083    0.54260    4.29861
       O   -16.13062    0.45157    5.05535
      H1   -15.81437    1.12649    5.69526

