90
frame 1 | Written by MDAnalysis XYZWriter (release 2.4.3)
       H    -3.11088    9.55527   -6.21620
       O    -3.72243    8.80732   -6.12771
      H1    -3.40662    8.22003   -6.77679
       H    -5.46909    7.68486   -2.14423
       O    -6.45080    7.73319   -1.86324
      H1    -6.35424    8.03656   -0.96937
       H    -1.99841    3.72848   -3.85559
       O    -1.04761    3.48683   -3.85291
      H1    -0.58160    4.29652   -3.58422
       H    -0.04522    8.21573   -8.06290
       O    -0.76835    8.33678   -7.45015
      H1    -0.50164    9.17391   -7.04562
       H    -4.37837    4.66550   -3.97357
       O    -3.45552    4.89927   -4.18872
      H1    -3.53161    5.15846   -5.12148
       H    -6.14137    4.22927   -2.67536
       O    -5.87899    4.03591   -3.58581
      H1    -6.47327    3.32944   -3.81087
       H    -0.74860    5.87314   -2.30509
       O    -0.00937    5.74568   -2.91269
      H1     0.76038    5.68886   -2.26816
       H    -4.10588    8.60859    0.79632
       O    -4.59944    9.42156    1.21545
      H1    -4.30587    9.42083    2.14196
       H    -7.30453    5.09062   -1.09111
       O    -6.38975    5.08328   -1.13723
      H1    -6.18926    6.01842   -1.16517
       H    -6.17001    8.73756    0.94176
       O    -7.13380    8.69621    0.65760
      H1    -7.41483    7.86054    1.08091
       H    -2.54925    9.98439   -0.26246
       O    -2.11976    9.12630   -0.52953
      H1    -1.27109    9.45185   -0.83795
       H    -1.27878    6.32285    0.30460
       O    -1.63975    6.22870   -0.58602
      H1    -1.87108    7.16454   -0.71592
       H    -1.77094   13.29286   -4.74130
       O    -1.44808   12.63599   -4.15068
      H1    -2.11518   11.90162   -4.33906
       H    -3.99569    7.53254   -4.40115
       O    -3.75469    7.46721   -3.43745
      H1    -3.51736    6.55246   -3.24619
       H    -6.67070    2.93889   -1.74413
       O    -7.15302    2.14876   -1.53498
      H1    -6.49039    1.73832   -0.95253
       H    -3.79446    2.13534   -6.82953
       O    -4.49086    1.90211   -6.17290
      H1    -5.07346    1.26414   -6.62164
       H    -5.53595    3.51192   -7.22371
       O    -6.01010    3.88874   -7.95252
      H1    -5.31053    4.08680   -8.59921
       H    -2.98139    3.53941   -1.24900
       O    -2.73966    3.76924   -0.30150
      H1    -2.23624    4.58704   -0.50356
       H    -2.96398    9.42999   -3.69521
       O    -2.29450   10.10671   -3.53941
      H1    -2.07291    9.97080   -2.61408
       H    -5.16248   11.41045   -2.18335
       O    -4.86492   11.40527   -3.11231
      H1    -4.01918   10.94124   -3.06040
       H    -0.13086    4.65250   -6.23564
       O    -0.91900    4.12119   -6.40767
      H1    -1.12179    3.69073   -5.58996
       H     0.26819    6.57901   -4.52121
       O     0.58228    7.01445   -5.32803
      H1    -0.19717    7.43687   -5.68884
       H    -8.21444    7.87656   -1.79964
       O    -9.13422    8.09235   -2.07803
      H1    -9.53684    8.25628   -1.22196
       H    -2.16034    8.06896   -8.39626
       O    -2.97196    7.58713   -8.65831
      H1    -3.43912    8.35399   -8.97149
       H    -2.14211    5.29926   -6.85235
       O    -3.10286    5.48277   -6.78519
      H1    -3.18413    6.04676   -7.57423
       H     0.37761    7.88173   -2.40866
       O     0.67808    8.68761   -1.93930
      H1     1.43686    8.37216   -1.33167
       H    -2.79046    3.54435   -7.73870
       O    -2.79434    2.61438   -8.08006
      H1    -1.90940    2.26337   -7.87220
       H    -6.19611   10.04865   -5.91456
       O    -6.82012   10.23317   -6.57513
      H1    -7.11726    9.33970   -6.85649
       H    -5.47467    5.17870    0.63738
       O    -5.02534    5.12227    1.46769
      H1    -4.18390    4.84122    1.10930
       H    -0.16901   11.25496   -6.47973
       O    -0.55994   10.54226   -5.96221
      H1    -1.50229   10.76856   -6.07266

