90
frame 0 | Written by MDAnalysis XYZWriter (release 2.4.3)
       H     7.46129   -3.58792   -3.01934
       O     6.89573   -4.29177   -3.44052
      H1     6.43279   -3.78898   -4.15317
       H     6.84138   -4.49766    1.80135
       O     6.50969   -4.01669    1.03554
      H1     7.13247   -3.30416    0.78140
       H     6.06614    1.13472    2.02690
       O     7.00986    0.94264    2.08500
      H1     7.04328    0.18943    2.73053
       H    14.05619    3.67359   -1.47564
       O    14.39693    3.52567   -0.58958
      H1    15.31056    3.86087   -0.76009
       H    13.79590   -5.68267   -2.81611
       O    13.48295   -5.00307   -3.43660
      H1    13.78515   -4.19543   -2.92434
       H    15.41613    0.33610   -2.62214
       O    15.10420    0.15631   -1.70023
      H1    14.28630    0.56923   -1.56761
       H    12.29786   -3.06689    0.63520
       O    11.35960   -3.26958    0.82303
      H1    10.89349   -2.48507    0.43970
       H    13.43639   -3.95992    2.99948
       O    13.07453   -3.06991    2.88482
      H1    12.32771   -3.31307    2.29821
       H    15.93821   -0.58489    0.13795
       O    16.34764   -0.26770    0.92786
      H1    16.97808    0.40838    0.58633
       H    15.09692    1.23364    1.03244
       O    14.50045    1.87454    1.44141
      H1    14.28213    2.45598    0.64243
       H     6.16832    1.02883   -1.10657
       O     5.38252    1.32898   -1.47227
      H1     5.50244    1.24757   -2.47094
       H     7.85528    3.71690   -0.67076
       O     8.76675    4.03706   -0.80517
      H1     9.07618    3.73234    0.04283
       H    10.03545    4.07954   -2.03517
       O    10.76949    4.36927   -2.57410
      H1    10.26379    4.93410   -3.14202
       H    12.62088    1.99123    0.56395
       O    11.68691    1.99248    0.28754
      H1    11.19574    2.19792    1.09045
       H     9.96160   -0.56671    2.12659
       O    10.24679   -0.61431    3.03842
      H1    11.21004   -0.41530    2.95358
       H    11.10240    2.18568   -4.99078
       O    10.36594    1.63581   -5.35514
      H1    10.70820    1.15246   -6.07922
       H    10.32423   -4.52265   -2.40285
       O    10.20342   -3.55659   -2.52607
      H1    11.04499   -3.19034   -2.27403
       H    10.47848    2.84276    3.22333
       O    10.52830    2.12051    2.57932
      H1    10.44002    1.26480    3.11822
       H    11.40006    0.00367    0.61668
       O    10.89593   -0.68001    0.18042
      H1    11.26036   -0.75314   -0.74143
       H     8.14625   -1.47934   -0.52718
       O     8.50515   -2.32002   -0.17568
      H1     8.85374   -2.71052   -0.98000
       H     8.16314   -0.76520   -3.32647
       O     8.19705   -1.68570   -3.66109
      H1     9.11020   -1.76522   -3.85096
       H    12.94829   -1.41607   -2.06803
       O    12.12327   -1.11255   -2.40633
      H1    12.15740   -0.15904   -2.55445
       H    15.08205   -3.64363   -0.94065
       O    14.48623   -3.28448   -1.71714
      H1    15.15099   -2.95476   -2.29138
       H    12.55972    2.54550   -3.16653
       O    12.35345    1.85519   -2.55721
      H1    11.84550    2.34288   -1.87090
       H     9.98727   -4.49840    1.14062
       O     9.32225   -5.17516    1.39121
      H1     8.66858   -4.83842    0.74062
       H     7.16407   -1.61210    4.32972
       O     7.47319   -0.81790    3.91035
      H1     8.42931   -1.01832    3.83544
       H     8.59393    2.03763   -3.12181
       O     8.36509    1.22279   -3.57145
      H1     9.00521    1.36737   -4.33414
       H     7.88853    0.85006    0.42276
       O     7.96471    0.88493   -0.55921
      H1     8.84962    0.52243   -0.52699
       H    12.68148    1.44625    5.87890
       O    13.00232    1.76821    5.02308
      H1    13.07064    0.98167    4.45404
       H    13.52048    0.43262    2.63813
       O    13.17869   -0.25915    3.19838
      H1    13.68489   -0.99694    2.94957

