90
frame 0 | Written by MDAnalysis XYZWriter (release 2.4.3)
       H    -1.77808    0.46496  -14.07849
       O    -1.47146   -0.04014  -13.27592
      H1    -2.29822    0.06305  -12.73090
       H    -1.53849   -3.08477  -13.67188
       O    -2.14277   -2.49417  -14.10442
      H1    -1.71669   -1.63223  -13.84486
       H    -7.14358    1.52628  -17.19292
       O    -7.74278    1.22726  -16.47004
      H1    -7.82878    0.25297  -16.66365
       H    -8.56431    0.98178   -8.65068
       O    -8.69747    0.03901   -8.80357
      H1    -9.07158   -0.22391   -7.92826
       H    -6.63011   -1.69347  -10.86875
       O    -7.57799   -1.43210  -11.04835
      H1    -7.77649   -0.98918  -10.21949
       H    -2.29830    3.69246  -14.08343
       O    -3.22070    3.57310  -13.95825
      H1    -3.25102    3.42561  -12.97698
       H    -4.91380    1.80285  -14.66154
       O    -5.73769    1.33965  -14.49054
      H1    -6.34959    1.45920  -15.24733
       H    -5.58906   -1.95744  -15.03623
       O    -5.55494   -1.32019  -15.75169
      H1    -5.56930   -0.49700  -15.21715
       H    -4.51165   -1.43723  -17.39140
       O    -4.38766   -1.30642  -18.33197
      H1    -5.22745   -1.52675  -18.74894
       H    -8.94621   -4.42087  -11.18825
       O    -8.01591   -4.11204  -10.97859
      H1    -8.14162   -3.13251  -10.97576
       H     0.52451   -2.69104  -12.10120
       O     0.07430   -2.87275  -11.28079
      H1     0.36169   -3.74991  -11.02368
       H    -1.24846    4.34116  -10.83622
       O    -1.62192    3.45600  -11.10058
      H1    -2.07064    3.19673  -10.25216
       H    -0.12116    0.49709  -11.77530
       O    -0.01162    1.25968  -11.17149
      H1    -0.75053    1.83749  -11.34212
       H    -6.31670   -5.40191  -13.48114
       O    -5.77827   -5.42031  -12.70707
      H1    -6.48079   -5.25563  -12.06339
       H     0.63327   -2.17784   -8.49555
       O     0.40036   -1.27406   -8.79871
      H1    -0.19044   -1.42290   -9.55887
       H    -7.77968   -2.79854  -13.94639
       O    -8.11460   -1.82895  -13.94275
      H1    -7.83807   -1.56189  -13.00711
       H    -0.64295   -2.82976  -16.87560
       O    -1.32126   -3.39933  -16.52936
      H1    -1.63996   -2.84818  -15.79061
       H    -3.12943    1.62422  -16.49317
       O    -2.90613    1.34467  -15.52008
      H1    -3.12933    2.20489  -15.10960
       H    -4.64924   -0.28441  -12.38002
       O    -4.00128   -0.03721  -11.70043
      H1    -4.19027    0.91875  -11.42768
       H    -8.16846    2.18338  -12.72895
       O    -7.24594    2.56816  -12.58536
      H1    -6.64133    1.99646  -13.15826
       H    -9.33332   -0.40056  -13.80726
       O    -9.63465    0.42472  -13.37327
      H1    -9.48999    0.20177  -12.46650
       H    -2.39478   -2.61801   -8.09343
       O    -2.26355   -3.19739   -8.86075
      H1    -2.58451   -4.05743   -8.58675
       H    -7.11051    3.02744   -8.91273
       O    -7.96185    2.68468   -8.67131
      H1    -8.60277    3.18638   -9.21834
       H    -7.90284   -1.56624  -15.82208
       O    -8.30652   -1.54571  -16.72792
      H1    -7.39179   -1.61824  -17.08813
       H    -2.43716    3.27303   -8.22033
       O    -2.75305    2.43869   -8.57711
      H1    -1.95598    1.80692   -8.47300
       H    -3.99753   -3.03789  -13.78954
       O    -4.93695   -2.97629  -13.47403
      H1    -5.01605   -3.87070  -13.13331
       H     0.01632    1.84470  -15.84241
       O    -0.58181    2.03513  -16.61139
      H1    -1.39814    1.60523  -16.24727
       H    -4.44634   -0.85331  -10.42042
       O    -4.51105   -1.40197   -9.60696
      H1    -3.85935   -2.16643   -9.70213
       H    -4.53548    3.36230  -11.00308
       O    -4.70864    2.61912  -11.58472
      H1    -5.65769    2.57258  -11.72263
       H    -5.54701   -1.81992   -8.26333
       O    -6.13215   -2.12032   -7.53875
      H1    -6.42708   -2.97268   -7.90266

