90
frame 0 | Written by MDAnalysis XYZWriter (release 2.4.3)
       H    -3.72895  -12.93577  -16.63078
       O    -3.84609  -13.86349  -16.77382
      H1    -4.11939  -13.87074  -17.68650
       H    -5.20305  -13.11162  -15.19382
       O    -5.75943  -13.31423  -14.45930
      H1    -6.66636  -13.36218  -14.85806
       H    -0.91714  -15.17438  -11.48663
       O    -1.88305  -15.05977  -11.40057
      H1    -2.15866  -14.48347  -12.12355
       H    -1.83568  -11.53431  -15.85956
       O    -2.72607  -11.57061  -15.49992
      H1    -2.63904  -12.27814  -14.82128
       H    -1.38461  -11.42313  -18.27666
       O    -0.81700  -10.80226  -17.80324
      H1    -0.10332  -10.78505  -18.46103
       H    -9.02446  -13.09917  -14.46935
       O    -8.45022  -13.46220  -15.17165
      H1    -8.21632  -12.69277  -15.69952
       H    -1.80858  -16.58882  -13.70782
       O    -1.28098  -16.09601  -14.43553
      H1    -0.45603  -16.05122  -13.97223
       H     1.06303  -17.80221  -18.47148
       O     0.21941  -18.16145  -18.78090
      H1    -0.29534  -17.98137  -17.95615
       H     0.87029  -14.70761  -16.96120
       O     0.29527  -14.27432  -16.33357
      H1    -0.44361  -14.19200  -16.93092
       H    -6.25645  -18.38482  -11.57871
       O    -6.06088  -19.14493  -10.99098
      H1    -5.40052  -18.75065  -10.41375
       H    -5.92065  -18.72402  -15.37581
       O    -4.95865  -18.55777  -15.47009
      H1    -4.83475  -17.74468  -15.01193
       H    -8.91312  -17.38617  -18.22029
       O    -8.16665  -17.05530  -17.69750
      H1    -8.31499  -16.05803  -17.86351
       H    -4.76268  -15.19762  -14.01968
       O    -5.07176  -16.14268  -14.02220
      H1    -4.54332  -16.44224  -13.27703
       H    -1.85277  -14.18891  -14.28644
       O    -1.96217  -13.45439  -13.62796
      H1    -1.07518  -13.28476  -13.29848
       H    -9.67571  -13.93288  -16.61592
       O   -10.14404  -13.88610  -17.51552
      H1   -10.98231  -14.34149  -17.31925
       H    -6.44913  -16.85833  -13.32070
       O    -7.13217  -17.14795  -12.67306
      H1    -7.53682  -17.89586  -13.10431
       H     2.44562  -16.27769  -16.88856
       O     2.24339  -15.72590  -17.71636
      H1     3.09456  -15.29557  -17.91945
       H    -2.52160  -10.36901  -19.67586
       O    -3.17400  -11.00638  -19.30089
      H1    -2.94029  -11.80548  -19.79356
       H   -10.21355  -19.25559  -16.90273
       O   -10.44172  -19.60969  -16.05601
      H1   -10.41383  -18.89424  -15.44868
       H    -2.96790  -15.74398  -16.48892
       O    -2.84277  -16.59988  -16.91376
      H1    -2.86850  -17.19571  -16.15950
       H    -6.72861  -10.73122  -16.91055
       O    -7.50363  -11.29136  -17.05246
      H1    -7.83468  -10.94258  -17.91125
       H    -9.47068  -17.98711  -13.72437
       O    -9.62098  -18.56540  -12.94766
      H1    -9.93211  -17.96648  -12.25170
       H    -0.74962  -17.20708  -15.58163
       O    -0.23576  -17.83755  -16.19947
      H1    -0.13113  -18.55058  -15.50501
       H    -0.47163  -16.44357  -18.93937
       O    -0.95194  -15.62235  -18.87429
      H1    -1.76186  -16.05852  -18.45769
       H    -5.94167  -17.12047  -17.45249
       O    -5.25853  -17.07271  -18.13683
      H1    -4.51674  -16.56303  -17.71880
       H   -11.25919  -16.65742  -18.53044
       O   -10.62114  -16.70866  -19.27369
      H1   -11.25850  -16.74719  -19.98320
       H    -4.56130  -18.55877  -18.80454
       O    -3.94029  -19.24665  -19.17643
      H1    -3.22268  -19.24375  -18.51624
       H    -4.33156  -10.32992  -18.34316
       O    -4.94569   -9.66767  -17.97201
      H1    -5.06397   -8.97349  -18.62522
       H    -8.82980  -16.68098  -15.81187
       O    -9.66000  -16.92625  -15.32269
      H1    -9.96410  -16.06775  -14.82199
       H    -2.83710  -18.27102  -12.27939
       O    -3.02922  -17.36149  -12.55631
      H1    -2.56068  -16.74311  -11.94044

