90
frame 1 | Written by MDAnalysis XYZWriter (release 2.4.3)
       H     4.97032    7.45680  -13.86993
       O     4.52740    7.43003  -13.00869
      H1     3.63219    7.68614  -13.33923
       H     7.22544   10.72515   -9.24238
       O     6.95164   11.50222   -9.79771
      H1     6.52824   12.05246   -9.12014
       H     6.77660   10.02935  -13.00447
       O     6.90436   10.57966  -13.76093
      H1     7.88216   10.47426  -13.89761
       H    11.67957    4.79042  -17.06574
       O    10.96134    5.27770  -16.54729
      H1    10.22350    4.61296  -16.55331
       H    11.16513    8.53671  -13.01376
       O    10.42864    7.95532  -12.90367
      H1    10.86835    7.22259  -13.37333
       H    10.44031    9.45568  -16.53779
       O    10.83782    9.26681  -17.42086
      H1    10.48648   10.00035  -17.93569
       H     9.48654    6.47584  -16.85712
       O     8.99780    7.25891  -16.66768
      H1     9.55988    7.95629  -17.09476
       H    14.39558    8.16554  -14.43426
       O    13.90766    8.98818  -14.43173
      H1    14.46132    9.62915  -14.98403
       H    14.75848    4.88933  -13.96236
       O    14.38645    5.80184  -13.98967
      H1    13.41332    5.74081  -14.14269
       H     8.13242    3.32042  -16.17369
       O     8.45394    4.22803  -16.20275
      H1     8.06673    4.58516  -17.01252
       H    11.42600    5.86283  -14.89977
       O    11.67042    5.89187  -13.97842
      H1    11.35783    5.05448  -13.59871
       H    11.56858    8.04264   -7.04545
       O    11.37699    8.43573   -7.89827
      H1    10.72232    7.87512   -8.31753
       H     7.86103    6.09237  -11.28780
       O     8.87348    6.06421  -11.37260
      H1     9.07346    6.87739  -11.87000
       H     6.91314    6.31106  -15.15454
       O     6.47639    7.11682  -15.55950
      H1     7.27157    7.61060  -15.82866
       H     7.44197    4.03750  -14.52502
       O     7.09726    3.88640  -13.61826
      H1     7.91884    3.52042  -13.21728
       H    12.93443    6.16909  -11.97400
       O    12.76690    5.53633  -11.27243
      H1    13.62248    5.48212  -10.74435
       H     9.71282    9.18075  -14.58632
       O     9.68925   10.11616  -14.92215
      H1    10.48207   10.48143  -14.50009
       H     8.77010    7.00810   -8.23921
       O     9.37826    6.40776   -8.65456
      H1     9.01557    6.52296   -9.57190
       H     5.79445    8.19328  -12.02375
       O     6.67507    8.55972  -11.77836
      H1     6.32082    9.06318  -11.00010
       H    12.68281    9.07988  -17.24739
       O    13.60524    8.88321  -17.37033
      H1    13.96379    8.44225  -16.61061
       H     9.60020    4.40794  -12.17633
       O     9.98176    3.86130  -12.90723
      H1    10.23213    2.97713  -12.52462
       H     8.69657   11.78634  -11.12096
       O     9.62996   11.81334  -10.97940
      H1     9.70458   11.29930  -10.18200
       H     7.19438    8.85072   -8.13465
       O     7.87629    9.21983   -8.78439
      H1     8.60021    9.33211   -8.10227
       H    15.81002    8.79826  -12.76233
       O    16.41002    8.26877  -13.28128
      H1    16.74616    7.55015  -12.73882
       H    10.19193    4.82910   -9.72773
       O    10.75983    4.13133  -10.12298
      H1    11.44481    4.69899  -10.49930
       H    12.20609   11.38713  -13.07349
       O    11.72984   10.67014  -12.67704
      H1    11.07144   10.97194  -12.03517
       H    13.46140   10.60304   -9.08829
       O    13.78026    9.87416   -8.53625
      H1    12.97733    9.29898   -8.41965
       H    14.02953    9.55014  -12.87481
       O    14.63312    9.76776  -12.10033
      H1    13.97662    9.99443  -11.42521
       H    11.11476    6.09009  -18.03545
       O    10.80568    6.28591  -18.97002
      H1    11.47559    6.89608  -19.27996
       H    13.59917   13.40480  -13.48835
       O    12.85124   12.96164  -13.90824
      H1    12.07205   13.35979  -13.46064

