90
frame 1 | Written by MDAnalysis XYZWriter (release 2.4.3)
       H     4.54966   -1.07027    6.85325
       O     4.54157   -1.72889    6.09707
      H1     4.44150   -2.57723    6.61440
       H     0.87839   -1.52355    4.68979
       O     0.25983   -1.31338    3.88594
      H1    -0.63588   -1.43918    4.21169
       H     0.34395    5.50941    5.92371
       O     0.79122    4.64263    5.99891
      H1     1.27173    4.60096    5.17954
       H    -0.02460   -3.97450    6.11184
       O     0.60444   -4.61345    5.75920
      H1     1.07788   -5.04844    6.54973
       H    -0.08085    1.44067    6.59867
       O     0.15263    0.83142    7.31502
      H1     0.49075    1.52428    7.97072
       H    -0.03724    3.41440    8.52855
       O     0.63204    2.87826    9.03970
      H1     1.16874    3.58302    9.44607
       H     4.40029   -0.40532    9.45750
       O     4.87909   -0.49216    8.62558
      H1     5.02486    0.36960    8.26413
       H     3.71427    2.54284    6.97678
       O     3.36791    3.37919    7.28018
      H1     2.49652    3.35132    6.85725
       H    -1.28824   -0.62517    8.25318
       O    -1.46760   -1.46923    8.61479
      H1    -1.74588   -1.07180    9.45270
       H     1.95600    0.11228   10.54999
       O     2.45528   -0.68488   10.48627
      H1     1.97130   -1.10508    9.76577
       H     1.41824    0.23504    4.00941
       O     2.01526    0.84587    4.44544
      H1     2.83675    0.66509    3.93165
       H     4.99615   -3.48359    2.27062
       O     4.39923   -3.01002    2.89921
      H1     3.83176   -3.78084    3.10798
       H    -2.39987   -0.82356    4.82991
       O    -2.29013   -1.69420    5.25183
      H1    -2.49935   -2.34386    4.60627
       H    -1.86835    3.14782    6.04473
       O    -1.36809    2.87000    5.28724
      H1    -0.56321    3.39979    5.51271
       H     4.79260    1.03680    5.24052
       O     5.17391    1.21918    6.07642
      H1     6.10820    0.94912    5.93273
       H     1.90445    2.24435    3.63536
       O     1.63671    3.18136    3.40539
      H1     1.55534    3.06824    2.41499
       H     2.29021   -5.46830    7.96496
       O     1.43767   -5.93548    7.95696
      H1     1.51642   -6.77461    7.43725
       H    -0.30479   -1.61194    0.96202
       O     0.35033   -2.29537    1.29528
      H1     0.39535   -2.12165    2.25827
       H     0.08430   -2.46269    8.85837
       O     1.03386   -2.73001    8.93184
      H1     1.30800   -2.45234    8.03439
       H    -1.97962    1.71585    4.10855
       O    -2.48977    0.96204    3.75363
      H1    -3.42891    1.37472    3.88191
       H     1.10123    1.77853   11.97164
       O     0.56295    1.37179   11.32012
      H1     0.72628    1.96688   10.53008
       H     1.29588   -0.45613    6.65452
       O     1.63006   -1.34414    6.40022
      H1     2.50520   -1.11512    6.12822
       H    -2.29394    0.68210   10.55493
       O    -1.99203   -0.17882   10.91337
      H1    -1.05076    0.01094   11.09142
       H     3.29498   -2.06816    1.77792
       O     2.93138   -1.26645    1.35802
      H1     1.99288   -1.57209    1.34037
       H    -3.10408   -4.00299    7.18070
       O    -2.16940   -3.91488    7.41338
      H1    -1.97349   -2.98592    7.68680
       H     2.02870   -4.45974    4.54599
       O     2.71680   -4.83245    3.96514
      H1     2.19703   -5.08697    3.19277
       H    -2.26929    2.81915    9.27077
       O    -2.75451    2.25584    9.87502
      H1    -3.66699    2.57326    9.81584
       H     3.84111   -2.83116    9.27641
       O     3.97132   -3.54630    8.70958
      H1     4.17354   -4.27221    9.27356
       H     1.00930   -4.96409   11.56892
       O     1.48139   -4.14217   11.44022
      H1     1.13894   -4.00802   10.55728
       H     4.05267   -0.64391    2.73638
       O     4.61330   -0.10510    3.32105
      H1     4.60973   -0.72062    4.13465

