90
frame 0 | Written by MDAnalysis XYZWriter (release 2.4.3)
       H    14.17976  -16.81157    2.70103
       O    14.89097  -16.20582    2.34138
      H1    14.51360  -15.40172    2.74247
       H     7.95161  -15.91013    6.07932
       O     8.35913  -15.55775    6.88953
      H1     9.04955  -14.98078    6.49648
       H     6.95201  -18.80849    7.14602
       O     6.02020  -18.58339    6.76919
      H1     6.27044  -17.92760    6.09961
       H    10.61731  -17.36111    7.38088
       O     9.99462  -17.27960    8.08505
      H1     9.34736  -16.71223    7.62746
       H    17.95812  -13.57039    7.75370
       O    17.02763  -13.61472    7.47035
      H1    17.05637  -13.83844    6.53031
       H    14.30025  -13.62163   12.17549
       O    14.01327  -14.47067   11.75939
      H1    13.63563  -14.13888   10.94019
       H    14.60372  -19.70511    6.37884
       O    14.74787  -19.21553    5.57115
      H1    15.15664  -19.83290    4.99722
       H    10.76764  -16.86303    0.76720
       O    10.40584  -16.06338    1.22450
      H1    10.32641  -15.36082    0.54225
       H    12.93656  -12.69991    9.70009
       O    13.21299  -13.44334    9.14867
      H1    14.18782  -13.39463    9.36497
       H     9.57276  -16.71206    2.95720
       O     8.83247  -17.28262    3.12767
      H1     8.38988  -17.33174    2.30737
       H    13.47141  -13.11585    2.89283
       O    14.21380  -13.64162    3.19121
      H1    14.04032  -13.99795    4.09341
       H    18.21618  -16.94418    8.48326
       O    17.77765  -17.15941    9.33446
      H1    16.95559  -16.64502    9.25469
       H    12.75833  -15.72103    9.29269
       O    12.69491  -16.65433    9.08500
      H1    13.14254  -17.02452    9.91169
       H    15.63548  -16.11634    4.03935
       O    15.71334  -16.27630    5.02650
      H1    15.52934  -17.19411    5.12228
       H     9.87506  -20.14359    4.28978
       O     9.71006  -19.20930    4.65411
      H1     9.48290  -18.72179    3.85503
       H    13.15698  -19.01114    2.49222
       O    13.09106  -18.16781    2.96217
      H1    12.28989  -18.38573    3.49973
       H    16.19165  -18.91958    6.54460
       O    16.90334  -18.76862    7.22532
      H1    16.61419  -18.00176    7.67689
       H    15.92781  -15.22670    8.01028
       O    15.52059  -15.97075    8.51964
      H1    14.66925  -16.16583    8.13495
       H    12.35128  -16.28281    6.53069
       O    12.07900  -17.13433    6.09661
      H1    12.81449  -17.73178    6.25872
       H    11.63987  -19.24057   10.69895
       O    10.89668  -19.18346   10.07032
      H1    11.08076  -18.36958    9.61529
       H    10.51075  -14.57326    4.91615
       O     9.68815  -14.19949    5.16366
      H1     9.47608  -13.96387    4.23850
       H     6.18662  -16.74784    4.29760
       O     6.82949  -16.84806    5.02122
      H1     7.58524  -17.09488    4.38086
       H    11.45940  -15.95770    3.14886
       O    11.75954  -15.38708    3.89642
      H1    12.08119  -16.03313    4.56098
       H    12.66244  -14.12379    7.41189
       O    12.64800  -14.47906    6.50452
      H1    12.22581  -13.79915    5.96798
       H     9.32353  -17.41081   11.09941
       O     9.43035  -16.37947   11.06530
      H1     9.83102  -16.33675   10.17080
       H    17.52194  -16.62266    4.86990
       O    18.43612  -16.91904    4.79119
      H1    18.74622  -16.96512    5.68966
       H    17.38852  -13.01760    3.44656
       O    16.61965  -12.73472    4.04603
      H1    15.92879  -13.16913    3.52360
       H    14.01391  -19.16091   10.45646
       O    13.83445  -18.31706   10.97276
      H1    14.25375  -18.47052   11.78882
       H     8.76665  -19.34684    6.24571
       O     8.54272  -19.51634    7.21125
      H1     8.90978  -18.68588    7.55442
       H    10.61297  -18.61235   -0.08752
       O    11.43657  -18.26974    0.39770
      H1    12.00474  -18.26955   -0.42368

