90
frame 0 | Written by MDAnalysis XYZWriter (release 2.4.3)
       H    -1.80891    4.52320    4.80939
       O    -2.16440    5.14259    4.17041
      H1    -2.80600    5.59005    4.64982
       H     0.60250   -0.85471    4.91952
       O     0.14878   -0.57603    4.06845
      H1    -0.76172   -0.70857    4.35474
       H     0.85767    5.48801    6.36914
       O     1.21855    4.65148    6.08417
      H1     1.31983    4.75061    5.12014
       H    -0.77318    0.39662    6.60244
       O    -0.29778    0.48124    7.46262
      H1    -0.23074    1.42633    7.62499
       H     4.81776    4.40822    9.91234
       O     4.81484    4.76261    8.99999
      H1     4.07924    4.21477    8.61856
       H    -2.40860    4.58384    8.75785
       O    -2.99980    4.05380    8.16920
      H1    -3.79485    4.63956    8.11987
       H    -0.44399    3.50829    9.53550
       O     0.06311    3.01400    8.90483
      H1     0.93160    3.38526    8.74965
       H     4.07890    0.13038    8.68855
       O     4.33021    0.13253    7.72778
      H1     4.39429    1.08608    7.68329
       H     3.77952    2.98507    6.79850
       O     3.09963    3.05729    7.46971
      H1     2.37459    3.47480    7.03901
       H     1.45296    0.77406    4.21867
       O     2.15123    1.28196    4.56768
      H1     2.97921    0.85169    4.23123
       H    -3.78076    2.81291    6.10081
       O    -4.61103    2.31691    6.15378
      H1    -4.46680    1.51609    5.61884
       H    -1.59266    8.22093   10.27321
       O    -0.68249    7.92179   10.52056
      H1    -0.42787    7.46881    9.68339
       H     3.54022    4.30467    2.36540
       O     4.14461    4.73557    1.71938
      H1     4.31887    4.08151    1.05364
       H    -1.33521    3.36174    6.99364
       O    -1.12681    3.47970    6.04442
      H1    -0.27542    3.91815    6.12531
       H     5.43714    1.79599    4.83707
       O     5.60935    2.21723    5.68665
      H1     6.46486    1.91194    6.03054
       H     2.00163    2.74964    3.65973
       O     1.86881    3.58396    3.16406
      H1     1.55271    3.26675    2.32092
       H     3.06839    7.10131    1.38836
       O     2.17018    6.97895    1.71519
      H1     2.24512    6.19818    2.26623
       H     0.13935    7.04986    1.95552
       O    -0.76759    7.23133    2.23219
      H1    -0.80142    6.79050    3.05945
       H     3.32410    5.11696   -0.34700
       O     2.34770    5.19644   -0.48234
      H1     2.13552    5.72671    0.24800
       H     3.66956    5.65165    4.64129
       O     3.33945    6.51237    4.27102
      H1     2.98173    7.01915    5.05237
       H     1.33418    3.86796    0.32603
       O     0.61319    3.55059    0.87393
      H1     0.25721    2.97328    0.22969
       H    -1.90197    2.57786    4.02347
       O    -2.67754    2.01175    3.73556
      H1    -3.44910    2.58605    3.73272
       H     4.78232    7.80835    5.90806
       O     5.05070    8.75426    5.87055
      H1     5.39598    8.97950    6.74451
       H     5.31961    8.74034    4.18494
       O     5.30484    8.36920    3.25035
      H1     4.63699    7.68498    3.47612
       H     0.46784    7.51666    7.24084
       O    -0.24582    6.88295    7.19363
      H1    -1.00147    7.44466    6.93014
       H     1.12170   -0.87618    6.87168
       O     1.72467   -1.10332    6.16595
      H1     2.16964   -0.23643    6.02463
       H     4.81845    7.87306    8.24925
       O     3.92503    7.53562    8.06844
      H1     4.18412    6.59819    7.98975
       H    -2.32473    9.43716    7.49810
       O    -2.26588    8.81224    6.81199
      H1    -1.66781    9.29743    6.14571
       H     2.66960    8.21035    6.80550
       O     2.18702    7.96482    6.03285
      H1     2.07014    8.90828    5.66168
       H     5.54581    3.87076    5.58900
       O     5.79721    4.81224    5.33581
      H1     6.74272    4.76042    5.21593

