90
frame 0 | Written by MDAnalysis XYZWriter (release 2.4.3)
       H    -0.80254   18.70238  -14.60151
       O    -0.37693   19.55021  -14.23725
      H1     0.57467   19.27115  -14.11869
       H     3.63130   16.84373  -17.15103
       O     3.80256   17.55961  -17.81110
      H1     3.09932   17.33496  -18.49708
       H     3.83037   10.66813  -12.05102
       O     4.05058   11.01969  -12.92690
      H1     4.99683   11.09888  -12.94223
       H     5.51282   11.91629  -18.58037
       O     5.87487   11.21120  -19.19027
      H1     5.32959   11.28442  -19.99310
       H     7.78238   16.20664  -14.83241
       O     8.69843   16.35725  -14.54119
      H1     8.87216   17.32229  -14.83668
       H     9.67229   15.45574  -16.07369
       O    10.30790   15.39939  -16.80918
      H1    10.47983   14.44428  -16.92781
       H    -1.66317   16.58858  -14.85240
       O    -0.83503   16.89896  -14.41749
      H1    -0.62458   16.18909  -13.83106
       H     7.97831   16.13239  -19.45999
       O     7.55640   16.46063  -18.61470
      H1     8.24971   16.94190  -18.21610
       H     0.83166   16.19221  -11.81975
       O     1.21137   17.12179  -11.91506
      H1     1.31308   17.15030  -12.83785
       H    10.99607   15.62421  -12.97623
       O    10.40360   14.90982  -12.66391
      H1     9.58726   15.02332  -13.17486
       H     7.45193   12.57769  -15.23501
       O     7.96150   13.38215  -15.32773
      H1     8.65495   13.28790  -16.00414
       H     1.26978   13.83925  -16.52820
       O     1.23913   14.74209  -16.18394
      H1     2.19118   14.95991  -15.93872
       H     2.24283   11.89454  -17.64047
       O     1.90286   12.12493  -16.74197
      H1     1.31580   11.28639  -16.58385
       H     1.51024   13.41891  -14.69269
       O     1.53021   12.73878  -14.05768
      H1     1.70744   12.00308  -14.63631
       H     3.00628   19.05244  -17.43138
       O     2.51275   19.83714  -17.06616
      H1     1.74423   19.71498  -17.67138
       H    10.07818   19.15546  -15.03224
       O     9.08044   19.13102  -14.94252
      H1     8.73977   19.55672  -15.75058
       H     0.77091   15.15498  -17.89581
       O     0.46046   15.61304  -18.70929
      H1    -0.45644   15.45682  -18.83674
       H     4.48260   15.93180  -18.44831
       O     4.27909   15.02161  -18.67705
      H1     4.83019   14.81051  -19.43340
       H    -0.10883   14.18284  -12.02273
       O    -0.09160   14.60198  -12.92286
      H1    -0.00564   13.87100  -13.51196
       H     5.14235   13.77893  -17.39797
       O     5.37064   12.90214  -16.98549
      H1     4.91573   12.91125  -16.13499
       H     3.19538   19.15749  -14.11862
       O     2.35734   19.45756  -13.71935
      H1     2.74467   19.95009  -12.96242
       H     8.26727   13.15345  -13.45985
       O     8.12319   13.07167  -12.50002
      H1     7.18136   13.11344  -12.29522
       H     4.58853   15.78359  -15.99499
       O     3.68996   15.71593  -15.58931
      H1     3.88950   15.66581  -14.63171
       H     4.24257   17.94665  -15.46977
       O     4.59827   18.60065  -14.79345
      H1     4.97313   19.29974  -15.31299
       H     4.71992   14.68702  -10.77866
       O     5.57986   14.97594  -11.09705
      H1     5.33650   15.82893  -11.62121
       H     4.93834    9.74291  -16.49608
       O     4.32351    9.70446  -17.22787
      H1     4.74657   10.32406  -17.87753
       H     6.91008   15.94905  -16.94415
       O     6.32264   15.86352  -16.13904
      H1     6.28437   14.89319  -15.99300
       H     3.62153   17.15414  -12.15066
       O     4.51759   16.86612  -12.47468
      H1     4.63712   17.58255  -13.11435
       H     0.41219   16.98945  -17.71731
       O     0.25717   17.78697  -17.21689
      H1     0.18316   17.40865  -16.32164
       H     3.61946   13.24504  -12.91379
       O     4.11838   14.02728  -13.10228
      H1     4.77512   14.07176  -12.41875

