90
frame 1 | Written by MDAnalysis XYZWriter (release 2.4.3)
       H    -6.18196  -15.05030   -2.22056
       O    -5.41657  -15.36010   -2.78929
      H1    -4.75012  -14.79249   -2.44222
       H    -1.06951  -14.00421    1.37194
       O    -2.06735  -14.04384    1.45644
      H1    -2.20953  -13.41884    2.15807
       H    -3.58818  -16.43761   -6.00838
       O    -3.52759  -15.46416   -5.93326
      H1    -3.23789  -15.33619   -5.02579
       H     0.57957  -12.82248   -3.96325
       O     1.41334  -13.20566   -3.66926
      H1     1.23424  -14.14661   -3.69990
       H    -6.05562  -13.92720    0.35657
       O    -6.18428  -13.05537   -0.09396
      H1    -6.21827  -12.47787    0.63178
       H    -8.34466  -10.97142   -2.11887
       O    -8.46868  -11.83429   -1.71189
      H1    -7.68361  -11.90058   -1.18922
       H    -2.64901  -14.28240   -2.40971
       O    -2.23287  -14.47211   -3.24636
      H1    -1.83504  -13.66145   -3.58097
       H    -0.47825  -16.85459   -3.95733
       O    -0.25192  -15.90913   -4.02155
      H1    -0.90111  -15.55468   -3.39204
       H    -7.88964  -14.29613   -0.71180
       O    -8.01154  -15.09929   -1.26532
      H1    -8.35062  -15.69595   -0.54669
       H    -4.84581  -17.78284   -1.29661
       O    -4.80199  -18.65903   -1.77992
      H1    -5.56250  -18.47750   -2.43700
       H    -4.95561  -15.84712    0.95038
       O    -5.82612  -15.44927    1.10693
      H1    -6.19158  -15.87838    1.88473
       H    -0.58264  -13.23452   -5.47535
       O    -0.78367  -12.63299   -4.75475
      H1    -1.05663  -11.79077   -5.17197
       H    -7.58391  -12.65415   -4.73288
       O    -6.87636  -12.12129   -5.08934
      H1    -7.16082  -11.20208   -4.90306
       H    -7.76061  -18.22921   -3.13635
       O    -6.88769  -18.61625   -3.45972
      H1    -6.78319  -18.07801   -4.28797
       H    -8.46449  -15.04048   -3.21034
       O    -9.17157  -15.36832   -3.80971
      H1    -8.83346  -14.91581   -4.61261
       H    -1.59492  -13.19873   -0.43504
       O    -0.89851  -12.80667   -0.95883
      H1    -0.09229  -13.29375   -0.77626
       H    -4.49532  -13.34274   -0.44976
       O    -3.83125  -14.04293   -0.80035
      H1    -3.37071  -14.22206    0.04816
       H    -3.04383  -12.44261   -6.71051
       O    -2.46490  -12.95425   -7.27150
      H1    -3.04218  -13.75281   -7.36493
       H    -0.42952  -17.51870    0.57967
       O    -0.12888  -16.91482   -0.13290
      H1     0.78442  -16.86115    0.07442
       H    -5.03566  -11.77159   -4.92217
       O    -4.18015  -11.29473   -5.01135
      H1    -4.41970  -10.39077   -5.31293
       H     0.95418  -14.15040    0.91783
       O     1.03456  -14.43215   -0.02805
      H1     0.43124  -15.17429   -0.13246
       H    -3.01528  -18.39167    1.03039
       O    -3.44677  -17.58305    0.66940
      H1    -2.65662  -17.10417    0.43732
       H    -4.09915  -18.89017   -5.18924
       O    -4.43139  -18.33451   -5.96478
      H1    -5.45281  -18.26828   -5.83892
       H    -5.03706   -9.22276   -3.16804
       O    -4.10859   -9.33546   -2.91828
      H1    -3.77393  -10.06012   -3.45166
       H    -0.69234  -15.14109   -5.63216
       O    -0.49548  -14.71578   -6.49601
      H1    -1.28483  -14.19432   -6.69946
       H    -7.26733  -17.93759   -7.18759
       O    -7.07309  -17.73218   -6.28179
      H1    -7.21730  -16.79441   -6.18594
       H    -1.59016  -18.99827   -3.36400
       O    -0.68538  -18.63451   -3.39919
      H1    -0.34968  -18.92807   -4.25647
       H    -5.67687  -15.12811   -6.06134
       O    -6.46282  -15.27124   -5.48598
      H1    -6.05627  -15.10030   -4.62909
       H    -4.68466  -18.37947    2.99746
       O    -5.21488  -18.96947    2.38503
      H1    -4.83483  -18.76886    1.47093
       H    -9.55936  -18.48756   -3.61904
       O    -9.51271  -18.11833   -2.73109
      H1    -9.23224  -17.23027   -2.92200

