90
frame 0 | Written by MDAnalysis XYZWriter (release 2.4.3)
       H     7.95161  -15.91013    6.07932
       O     8.35913  -15.55775    6.88953
      H1     9.04955  -14.98078    6.49648
       H     6.95201  -18.80849    7.14602
       O     6.02020  -18.58339    6.76919
      H1     6.27044  -17.92760    6.09961
       H    10.61731  -17.36111    7.38088
       O     9.99462  -17.27960    8.08505
      H1     9.34736  -16.71223    7.62746
       H     8.91598  -18.65549   13.66975
       O     9.12536  -18.19930   14.51890
      H1     8.31772  -18.41236   14.99414
       H    15.56831  -18.21075   14.16369
       O    14.72514  -18.70142   13.94536
      H1    14.05644  -18.05337   14.31793
       H    14.30025  -13.62163   12.17549
       O    14.01327  -14.47067   11.75939
      H1    13.63563  -14.13888   10.94019
       H    14.60372  -19.70511    6.37884
       O    14.74787  -19.21553    5.57115
      H1    15.15664  -19.83290    4.99722
       H    11.09608  -15.96877   12.19383
       O    11.49617  -15.58449   12.93751
      H1    12.26603  -15.17691   12.52866
       H    12.93656  -12.69991    9.70009
       O    13.21299  -13.44334    9.14867
      H1    14.18782  -13.39463    9.36497
       H     5.08786  -18.27982    8.28266
       O     4.27914  -18.04321    8.77771
      H1     4.50751  -18.04010    9.67790
       H     9.72377  -13.21731   13.92105
       O    10.44037  -13.67026   14.47045
      H1    10.64502  -14.45652   13.92623
       H     6.24756  -13.24152    7.82441
       O     7.13889  -13.22229    8.12400
      H1     7.47640  -14.05181    7.68383
       H    18.21618  -16.94418    8.48326
       O    17.77765  -17.15941    9.33446
      H1    16.95559  -16.64502    9.25469
       H    12.75833  -15.72103    9.29269
       O    12.69491  -16.65433    9.08500
      H1    13.14254  -17.02452    9.91169
       H     9.33718  -19.29709   11.12312
       O     8.71739  -18.96472   11.75980
      H1     7.87480  -19.04895   11.27560
       H     9.87506  -20.14359    4.28978
       O     9.71006  -19.20930    4.65411
      H1     9.48290  -18.72179    3.85503
       H    16.19165  -18.91958    6.54460
       O    16.90334  -18.76862    7.22532
      H1    16.61419  -18.00176    7.67689
       H     7.74515  -16.04325   11.68630
       O     6.80469  -15.98969   11.89535
      H1     6.93293  -15.89511   12.84314
       H    15.92781  -15.22670    8.01028
       O    15.52059  -15.97075    8.51964
      H1    14.66925  -16.16583    8.13495
       H    12.35128  -16.28281    6.53069
       O    12.07900  -17.13433    6.09661
      H1    12.81449  -17.73178    6.25872
       H    11.63987  -19.24057   10.69895
       O    10.89668  -19.18346   10.07032
      H1    11.08076  -18.36958    9.61529
       H    10.51075  -14.57326    4.91615
       O     9.68815  -14.19949    5.16366
      H1     9.47608  -13.96387    4.23850
       H    11.45940  -15.95770    3.14886
       O    11.75954  -15.38708    3.89642
      H1    12.08119  -16.03313    4.56098
       H    12.66244  -14.12379    7.41189
       O    12.64800  -14.47906    6.50452
      H1    12.22581  -13.79915    5.96798
       H     5.41783  -19.02489   11.86589
       O     5.89049  -18.59887   11.10757
      H1     6.10373  -17.68441   11.43838
       H     9.32353  -17.41081   11.09941
       O     9.43035  -16.37947   11.06530
      H1     9.83102  -16.33675   10.17080
       H    14.01391  -19.16091   10.45646
       O    13.83445  -18.31706   10.97276
      H1    14.25375  -18.47052   11.78882
       H     7.96969  -15.52415   15.18824
       O     7.42563  -16.13827   14.62332
      H1     7.98642  -16.90231   14.31122
       H     8.76665  -19.34684    6.24571
       O     8.54272  -19.51634    7.21125
      H1     8.90978  -18.68588    7.55442
       H    12.05101  -16.71754   14.19188
       O    12.38659  -17.30316   14.90684
      H1    12.04488  -18.14131   14.55563

