90
frame 2 | Written by MDAnalysis XYZWriter (release 2.4.3)
       H    -0.71873    9.81902    7.93916
       O    -1.67363    9.78370    8.13940
      H1    -1.96120    8.92697    7.90167
       H    -2.31799   13.15381    3.52280
       O    -2.20471   14.09849    3.31726
      H1    -3.09107   14.35451    3.05947
       H     8.16394   13.05594    7.92983
       O     7.40675   13.62699    7.81390
      H1     6.82611   13.21964    7.17753
       H    -2.09726   14.90316    8.41447
       O    -2.78682   15.49889    8.30891
      H1    -3.00991   15.41147    7.34147
       H     2.77055   18.41615    6.62593
       O     2.41398   18.05326    7.45908
      H1     1.54297   18.37413    7.46433
       H     1.23907    9.52328    6.99309
       O     1.18640    9.54790    7.92856
      H1     1.89864   10.14770    8.22675
       H     2.68478   14.86086    6.91022
       O     3.21860   15.44779    7.41807
      H1     2.81676   16.33957    7.33316
       H     0.31397   18.56837    4.07054
       O     0.66419   17.70635    4.07421
      H1     1.64158   17.73266    3.97457
       H     4.25521   11.38406    7.94259
       O     3.29153   11.46958    7.99640
      H1     3.19241   11.72444    8.91671
       H    -2.05146   12.59214   10.55137
       O    -1.16376   12.96802   10.74660
      H1    -0.68101   12.97891    9.90629
       H     1.83278   13.13997    5.65506
       O     1.77228   13.26340    6.59799
      H1     2.25526   12.51052    6.94843
       H    -0.59477   15.15417    2.68829
       O     0.24128   15.19272    2.25916
      H1     0.61483   16.06428    2.61484
       H     3.72315    8.54719    2.55532
       O     3.08527    9.22416    2.90431
      H1     2.81144    9.69699    2.11308
       H     5.54296   13.65888   10.34002
       O     5.75063   12.82650   10.83262
      H1     4.87930   12.43068   10.90234
       H    -1.44827   12.85154    7.49614
       O    -0.74362   13.25538    8.06736
      H1     0.09366   13.05301    7.65863
       H    -0.58562   16.71443   10.79104
       O    -0.09837   16.06305   11.28518
      H1    -0.56963   15.24974   11.22433
       H     5.39229   15.18639    2.83237
       O     6.24359   14.80369    3.16462
      H1     6.14510   14.71135    4.11064
       H     1.21321   15.01066   10.31371
       O     2.00528   14.54617    9.95831
      H1     2.22600   15.11072    9.22007
       H    -2.11021   11.77494    5.20805
       O    -1.57740   11.66006    4.42029
      H1    -1.76566   10.69607    4.20417
       H     4.80524   11.79248    3.05839
       O     5.01888   11.11837    3.73992
      H1     4.32071   10.45948    3.72031
       H     1.60324   11.50574    2.04293
       O     2.03356   11.27812    1.23733
      H1     1.43213   11.49941    0.47966
       H     6.13101   11.32041    5.37207
       O     6.13664   11.46019    6.31571
      H1     6.98639   11.05221    6.64292
       H     6.09687   14.78995    8.56600
       O     5.36844   15.07315    9.08064
      H1     4.66532   14.93644    8.49295
       H     5.25427   13.35297    5.64355
       O     5.55835   14.22095    5.86920
      H1     4.79023   14.67509    6.28335
       H    -2.70168   11.51493    7.20157
       O    -3.08804   12.22895    6.62343
      H1    -3.99576   11.91393    6.48617
       H     0.38676   12.37133    3.97204
       O     1.20548   12.86414    3.78616
      H1     1.02266   13.64455    3.22316
       H    -0.47319   17.22101    5.23527
       O    -1.21082   17.34723    5.89103
      H1    -1.91167   16.68584    5.83260
       H     2.29271    9.23381    4.79035
       O     2.02913    8.62684    5.48128
      H1     2.36031    7.74292    5.25988
       H     2.66738   12.85102   10.56228
       O     3.15364   12.03227   10.68341
      H1     2.59686   11.46217   11.25987
       H    -4.47112   15.34100    5.40079
       O    -3.47766   15.38673    5.48027
      H1    -3.08510   14.57175    5.04483

