90
frame 0 | Written by MDAnalysis XYZWriter (release 2.4.3)
       H   -17.44481    5.51037   -5.07341
       O   -17.25433    6.05378   -4.27762
      H1   -16.29670    5.91940   -4.09467
       H   -13.32260    4.67752   -7.44458
       O   -13.58158    5.61324   -7.36678
      H1   -13.98226    5.86561   -8.21040
       H   -14.60369    2.68756   -6.78685
       O   -13.85300    2.92090   -7.35636
      H1   -14.20907    2.72042   -8.23970
       H   -12.46922    8.70330   -3.25641
       O   -12.03956    7.99491   -2.74377
      H1   -11.57873    7.58322   -3.44869
       H   -12.35822    1.46482   -3.56012
       O   -11.55356    0.90484   -3.50576
      H1   -11.77935   -0.07460   -3.68523
       H   -14.90193    2.02141   -0.53379
       O   -15.33757    1.16281   -0.51876
      H1   -15.95729    1.30446    0.22472
       H   -14.17755    6.94405   -4.22125
       O   -14.02003    5.94736   -4.27615
      H1   -13.85534    5.68487   -5.22959
       H   -10.38947    8.20587    0.23045
       O   -10.50469    8.92173   -0.41117
      H1   -10.96040    8.57800   -1.17356
       H   -11.83520    6.51732    3.07307
       O   -11.69154    7.17626    2.32287
      H1   -12.19638    6.69856    1.63002
       H   -12.23910   10.00506   -6.53968
       O   -12.03984    9.08710   -6.25432
      H1   -11.22896    9.23738   -5.77320
       H   -16.76022    9.02182   -1.61344
       O   -15.81289    8.89137   -1.96703
      H1   -15.91655    9.03886   -2.90984
       H   -13.43407    4.04141   -3.97003
       O   -13.10427    3.15901   -3.83065
      H1   -12.37311    3.17377   -4.54665
       H   -14.78237    8.75378   -0.70303
       O   -13.92546    8.81952   -0.17759
      H1   -14.25495    8.98310    0.72123
       H   -16.59248    2.23100   -5.29736
       O   -17.04693    2.08155   -6.12329
      H1   -17.68419    1.42635   -5.72872
       H   -16.10937    4.29857    1.15240
       O   -15.13989    4.23632    1.04830
      H1   -14.88890    5.17726    1.08727
       H   -11.58141    6.33029   -6.18208
       O   -10.84783    5.77585   -5.98773
      H1   -10.76453    5.92534   -5.04471
       H   -11.66487    1.16661   -1.60360
       O   -12.02979    1.42737   -0.72495
      H1   -11.16962    1.43553   -0.25030
       H    -8.50879    3.11803   -1.42023
       O    -9.01915    3.91431   -1.02147
      H1    -9.52233    4.16008   -1.82262
       H    -9.08265    8.37648   -5.30325
       O    -9.70742    8.94547   -4.74285
      H1    -9.43065    8.65098   -3.83297
       H   -15.07329    2.37147   -3.52073
       O   -15.96803    2.55100   -3.38380
      H1   -16.28671    1.80924   -2.86753
       H   -17.01910    5.84543   -0.48345
       O   -17.48143    6.27564    0.26440
      H1   -18.29097    5.73945    0.21213
       H    -7.74468    7.63395   -2.39637
       O    -8.68287    7.65375   -2.38601
      H1    -8.87301    7.85365   -1.45892
       H   -13.01326    5.91649   -0.31212
       O   -13.36534    6.34810    0.44913
      H1   -13.48436    7.29995    0.09711
       H   -14.94715   11.55278   -5.09899
       O   -14.80872   11.42470   -4.14291
      H1   -14.47894   10.50884   -4.05362
       H   -13.52844    8.80602   -5.33178
       O   -14.31383    8.83513   -4.79763
      H1   -15.03446    8.76059   -5.51341
       H   -12.76236    4.06780   -2.21240
       O   -12.62225    4.98234   -2.01105
      H1   -13.20241    5.42924   -2.59787
       H   -15.25615    4.44986   -0.88527
       O   -15.90835    4.68532   -1.56588
      H1   -15.81360    4.05661   -2.28800
       H   -11.04320    5.23185   -2.90344
       O   -10.31057    5.63890   -3.35206
      H1    -9.88044    6.28148   -2.76033
       H   -13.55465   10.43677   -0.74234
       O   -13.80209   11.37967   -0.78361
      H1   -13.50569   11.69128   -1.63619
       H   -10.23101    3.32279   -5.47934
       O   -11.15870    3.25209   -5.72728
      H1   -11.29830    4.21510   -5.95123

