90
frame 1 | Written by MDAnalysis XYZWriter (release 2.4.3)
       H     9.71647   13.20376   -8.38334
       O     9.16156   13.10089   -7.64562
      H1     9.58991   13.65384   -6.99138
       H     8.77373   15.40059   -5.03125
       O     9.49907   15.65924   -4.44491
      H1     9.20751   16.26645   -3.76095
       H    12.57748   14.77045    2.23401
       O    12.00650   14.65467    2.97377
      H1    11.94409   15.52450    3.29295
       H    13.91372   17.30683   -3.82143
       O    12.99608   16.94301   -3.77249
      H1    12.70408   17.20763   -2.89000
       H     6.90863   14.97217   -1.40309
       O     7.13357   14.02676   -1.35656
      H1     6.62862   13.64293   -2.11321
       H    11.46411   18.07631    3.14852
       O    11.02513   17.33910    3.59240
      H1    11.63501   17.18071    4.34778
       H     6.94117   13.74165    1.37404
       O     7.11914   12.81142    1.37389
      H1     6.72859   12.47878    2.23350
       H     3.33910   15.13922   -2.00452
       O     3.68504   15.96132   -2.34892
      H1     2.96409   16.39316   -2.81207
       H    13.50224   14.39557   -0.86097
       O    12.56973   14.40265   -0.59861
      H1    12.39910   13.47799   -0.48177
       H    11.96218   19.27424    0.71415
       O    12.45142   18.67747    1.26009
      H1    13.34853   18.90814    0.94282
       H    10.60506   12.60891   -1.44712
       O    11.02769   11.93931   -0.89318
      H1    10.61632   12.30823   -0.06845
       H    11.73921   14.70708   -7.97404
       O    12.05020   14.65819   -7.02395
      H1    11.79690   15.53530   -6.65570
       H     4.76226   11.40008    0.66639
       O     5.25062   11.76717   -0.11625
      H1     5.93720   12.30503    0.32029
       H     9.71575   14.74175    0.01985
       O     9.54900   15.46769    0.60476
      H1    10.44168   15.58255    0.97560
       H    11.73612   13.82359   -4.59709
       O    11.58148   12.87294   -4.37767
      H1    10.67721   12.61454   -4.52964
       H     5.96247   17.65949    2.92030
       O     5.69420   18.39414    3.58534
      H1     5.93312   18.06157    4.47139
       H     9.40113   18.18923   -6.54698
       O     8.60459   18.54172   -6.09059
      H1     7.93623   18.64038   -6.79882
       H     5.00819   12.64243   -3.07220
       O     5.90232   12.76085   -3.47596
      H1     5.83333   12.02391   -4.08669
       H     8.52763   14.15342   -1.56520
       O     9.54360   14.14967   -1.66386
      H1     9.75766   14.57173   -2.52431
       H     9.29893   11.44888   -5.56199
       O     9.06507   11.86958   -4.70360
      H1     8.45172   12.64829   -4.94923
       H     5.55046   16.21524   -1.81230
       O     6.42514   16.54578   -1.76151
      H1     6.53035   16.93077   -2.66637
       H     4.48889   18.34858   -0.23521
       O     5.35770   18.29057    0.19806
      H1     5.94257   17.67094   -0.25227
       H     8.86574   12.56998    1.61929
       O     9.87180   12.68605    1.45617
      H1    10.09256   13.47951    1.88218
       H    10.83655   16.52422   -5.51438
       O    11.30747   17.12864   -6.18818
      H1    11.93888   17.64005   -5.62255
       H     7.19687   13.95728   -6.54294
       O     7.55999   14.00965   -5.63232
      H1     6.71816   13.66756   -5.07984
       H     7.40543   15.31942    2.88894
       O     7.14298   15.47581    1.99479
      H1     8.05490   15.53565    1.68225
       H     4.93417   17.15484   -4.72621
       O     4.36208   16.91949   -5.46217
      H1     4.91491   17.32306   -6.13654
       H    12.15112   16.00711   -0.80238
       O    11.73436   16.86781   -0.98194
      H1    11.79172   17.26715   -0.11835
       H     7.03569   17.61986   -5.15727
       O     6.60813   17.74299   -4.27531
      H1     6.35433   18.71149   -4.20438
       H     8.64025   16.60063   -1.84337
       O     9.32181   17.13976   -2.27155
      H1    10.12244   17.02872   -1.73233

