90
frame 0 | Written by MDAnalysis XYZWriter (release 2.4.3)
       H    15.89134  -15.29118   -1.99341
       O    16.37836  -15.57496   -2.80029
      H1    17.26191  -15.79384   -2.40656
       H    14.92704   -8.03284   -7.17341
       O    15.09609   -8.99814   -7.02396
      H1    14.69396   -9.17788   -6.16533
       H    16.56810   -6.74880   -4.26871
       O    16.54715   -7.02939   -3.32346
      H1    17.35249   -6.62743   -3.01696
       H    13.79590   -5.68267   -2.81611
       O    13.48295   -5.00307   -3.43660
      H1    13.78515   -4.19543   -2.92434
       H    12.97520   -8.75717   -4.20585
       O    13.67927   -9.13258   -3.58292
      H1    13.24306   -9.99878   -3.39098
       H    18.25961   -6.42107   -5.85714
       O    17.45144   -6.94772   -5.86846
      H1    16.98565   -6.51293   -6.61197
       H    12.60131   -8.05385   -0.71456
       O    12.65359   -7.44546   -1.48055
      H1    13.08127   -8.02688   -2.12350
       H    17.86391   -3.48029   -2.99665
       O    17.28520   -2.70175   -2.88853
      H1    17.04436   -2.49742   -3.80123
       H    15.97192   -9.38092    2.24653
       O    16.46848   -8.56137    2.24327
      H1    16.53109   -8.39983    1.27988
       H    19.52871  -13.41668    2.56643
       O    18.70209  -12.96537    2.44997
      H1    19.08278  -12.08990    2.58687
       H    16.86779  -14.82310   -0.20081
       O    17.66549  -14.31915    0.03509
      H1    17.49548  -14.25533    0.98278
       H    15.31766   -5.06908    0.82254
       O    15.73697   -4.32320    0.43687
      H1    16.06184   -3.88977    1.17882
       H    17.21625  -12.39734   -7.30257
       O    17.58886  -11.67702   -7.92209
      H1    17.85678  -12.15137   -8.73713
       H    16.40140  -13.26499   -3.55806
       O    15.53454  -12.83493   -3.70398
      H1    15.84985  -11.92497   -3.83549
       H    17.26034   -5.42425    0.14174
       O    18.14585   -5.50919   -0.31366
      H1    18.73284   -5.16388    0.41387
       H    13.55610   -9.18496    1.32640
       O    12.67342   -8.89097    0.96380
      H1    12.41499   -9.68499    0.50341
       H    13.78740  -12.59114   -3.35982
       O    12.85357  -12.27222   -3.33278
      H1    12.60815  -12.56722   -2.38796
       H    18.82297  -14.21852   -4.14502
       O    18.84772  -13.34369   -3.68639
      H1    19.35881  -12.87489   -4.30862
       H    17.60950  -10.16795   -6.47518
       O    17.96880   -9.43275   -5.98238
      H1    17.48985   -8.57255   -6.13476
       H    18.88715  -10.16471    3.68423
       O    19.57898  -10.23921    3.00590
      H1    19.12906   -9.78596    2.26488
       H    16.19201   -8.46155   -1.47521
       O    16.06864   -8.77747   -0.56050
      H1    16.65086   -9.62232   -0.52359
       H    19.72065   -5.39432   -2.65486
       O    18.78952   -5.14907   -2.92149
      H1    18.42013   -5.18073   -1.96908
       H    18.60617   -8.87516   -0.36164
       O    18.93881   -8.31077    0.36681
      H1    18.73846   -7.41490    0.04632
       H    15.04280  -15.35739   -5.44541
       O    14.81082  -14.42948   -5.64522
      H1    14.93848  -13.94639   -4.81299
       H    17.57139   -7.87088    3.59662
       O    17.96112   -7.22661    4.12897
      H1    18.27260   -6.58020    3.47027
       H    16.81205   -9.53777   -4.40011
       O    16.33056  -10.12471   -3.82235
      H1    15.70432   -9.44866   -3.50246
       H    18.91799   -9.50357   -2.65853
       O    18.38126   -9.81746   -1.94921
      H1    17.67482  -10.14367   -2.50354
       H    14.75594  -11.44627    1.22761
       O    15.01216  -10.85902    1.93503
      H1    15.69171  -11.37317    2.35420
       H    17.43894  -12.43824    0.04101
       O    17.56580  -11.49838    0.28096
      H1    18.36096  -11.63080    0.86083
       H    17.38852  -13.01760    3.44656
       O    16.61965  -12.73472    4.04603
      H1    15.92879  -13.16913    3.52360

