90
frame 0 | Written by MDAnalysis XYZWriter (release 2.4.3)
       H     9.75457   13.19458   -8.82031
       O     9.95232   13.57419   -7.96187
      H1    10.67843   14.23743   -8.17978
       H     8.43657   15.73305   -4.46857
       O     9.19132   15.73227   -3.87630
      H1     8.95116   16.28139   -3.13651
       H    13.77522   18.51134   -3.17537
       O    12.81109   18.30988   -3.05563
      H1    12.85775   17.77776   -2.26688
       H    16.90624   17.73103   -6.53485
       O    16.84728   18.39960   -7.24556
      H1    17.77743   18.36300   -7.46641
       H    10.99607   15.62421  -12.97623
       O    10.40360   14.90982  -12.66391
      H1     9.58726   15.02332  -13.17486
       H    12.07262   15.93058   -7.88450
       O    12.27421   15.36609   -7.17846
      H1    11.84470   15.84020   -6.42675
       H    11.14224   15.64881  -10.96419
       O    11.31728   15.70773   -9.98573
      H1    12.18527   16.14116   -9.95844
       H    12.81509   10.79240   -4.04615
       O    13.36045   10.12498   -3.51951
      H1    12.87414   10.27306   -2.71347
       H    11.13071   14.15090   -3.75060
       O    11.58685   13.27715   -3.95044
      H1    10.90795   12.75771   -4.35418
       H     9.57095   18.32496   -6.39746
       O     8.93478   19.04106   -6.30200
      H1     8.80699   19.36312   -7.23009
       H    14.30504   17.08806   -9.05642
       O    13.44130   17.19751   -9.44042
      H1    13.46127   18.16422   -9.54753
       H    16.34702   13.10876   -6.88767
       O    17.27391   12.79007   -6.83451
      H1    17.66101   13.68997   -6.54417
       H    15.06145   15.51753  -11.56230
       O    14.57479   14.71314  -11.47935
      H1    14.39869   14.80839  -10.49222
       H     9.39552   11.41469   -6.06961
       O     9.42230   12.11267   -5.34425
      H1     8.72398   12.68965   -5.67458
       H    14.16556   12.56231   -9.44264
       O    13.61345   11.89567   -9.83168
      H1    12.89372   12.40089  -10.24483
       H    10.61326   16.56176   -5.01355
       O    11.26263   17.12193   -5.33904
      H1    11.70460   17.22536   -4.47117
       H     6.08533   15.85660   -9.28612
       O     6.29496   15.73232   -8.34338
      H1     6.69614   14.86182   -8.15120
       H     9.30634   12.96189  -11.24279
       O     9.75685   12.50062  -10.53345
      H1     9.06342   11.89198  -10.22482
       H    17.55402   15.70367   -5.12793
       O    17.09540   15.80820   -5.97253
      H1    16.22058   15.48638   -5.69083
       H    10.92381   19.31122   -9.20900
       O    11.74143   19.69194   -9.56216
      H1    11.89187   19.19619  -10.34606
       H     6.81470   13.53600   -6.47889
       O     7.13515   13.78913   -5.66896
      H1     6.26486   13.75197   -5.20748
       H    15.53595   14.05138   -4.64147
       O    15.08957   14.84288   -4.39365
      H1    14.32748   14.90033   -5.00804
       H    10.06659   18.03783  -10.80252
       O    10.36919   18.06901  -11.70797
      H1     9.68028   18.60677  -12.08542
       H    15.81234   14.74618   -1.45163
       O    14.85300   15.06628   -1.65616
      H1    14.83073   14.69073   -2.54082
       H    13.82621   14.04200   -7.47141
       O    14.77896   13.96130   -7.45634
      H1    15.22060   14.72561   -7.86388
       H    10.60241   10.25591   -7.54369
       O     9.73089   10.69020   -7.69380
      H1     9.98120   11.58404   -7.77192
       H    13.18867   11.35329   -6.79015
       O    12.37807   11.00478   -6.42444
      H1    12.30671   10.06224   -6.70101
       H    10.17104   17.03738   -9.32572
       O     9.71844   17.83587   -8.98052
      H1     8.75511   17.73149   -9.21562
       H    16.75805   15.92604   -9.25091
       O    15.98148   16.06458   -8.60782
      H1    16.36118   16.82917   -8.11847
       H    13.23840   13.87270  -12.35998
       O    12.67894   13.23300  -12.86925
      H1    11.86017   13.74628  -13.04400

