90
frame 1 | Written by MDAnalysis XYZWriter (release 2.4.3)
       H    17.61649  -11.89281  -16.79059
       O    18.58355  -12.04229  -16.59976
      H1    18.64289  -11.26560  -16.03101
       H    10.51283   -7.25921  -16.32358
       O    10.52293   -7.55275  -17.22226
      H1    10.36277   -6.74044  -17.78835
       H    16.50119   -7.74753  -18.20588
       O    17.27081   -7.64656  -18.77388
      H1    17.99563   -7.26546  -18.12375
       H    10.41884  -15.62806  -17.48355
       O    10.76867  -14.95923  -16.88512
      H1    10.75951  -14.11269  -17.39662
       H    10.33014   -1.45568  -18.66835
       O    11.10412   -1.48515  -18.03007
      H1    11.33593   -2.45638  -18.16588
       H    13.93381   -5.39810  -12.66076
       O    14.29062   -5.08429  -13.43177
      H1    13.50842   -4.78390  -14.02615
       H    10.92175  -12.24520  -17.53854
       O    10.65414  -12.78102  -18.31070
      H1     9.70826  -12.65471  -18.34876
       H    11.92739   -4.07745  -14.81698
       O    12.19891   -4.78285  -15.37630
      H1    11.88590   -5.58904  -14.88790
       H     9.17880  -10.16459  -14.00498
       O     9.53386  -10.40290  -14.87229
      H1     9.00237   -9.96487  -15.47022
       H    16.77475   -1.92502  -17.09302
       O    15.88255   -2.19142  -16.86435
      H1    15.97157   -3.17937  -16.73132
       H    13.55224   -4.93942  -18.94765
       O    14.25144   -5.62505  -18.97967
      H1    15.04329   -5.03012  -18.83692
       H    14.05746  -12.74635  -13.43944
       O    14.33597  -13.08097  -12.55754
      H1    15.30382  -12.91029  -12.46542
       H    12.48060   -8.21192  -16.92083
       O    13.11083   -8.90811  -17.22461
      H1    13.34598   -8.58890  -18.12136
       H    16.75978  -13.16195  -18.66574
       O    16.80167  -13.89882  -19.32160
      H1    16.38152  -14.57633  -18.79216
       H    15.14313  -11.24158  -17.77442
       O    16.12865  -11.37256  -17.68776
      H1    16.61548  -10.99848  -18.41854
       H    18.72009   -9.25652  -14.57733
       O    19.04618   -9.54571  -15.46288
      H1    18.84389   -8.78800  -16.06074
       H    17.78295   -9.43661  -19.31142
       O    17.81528  -10.38675  -19.59248
      H1    18.70085  -10.70230  -19.38459
       H     7.82705   -9.22295  -17.72858
       O     8.72545   -9.63196  -17.63563
      H1     9.30693   -8.81693  -17.66033
       H    11.97054  -11.22495  -11.09539
       O    11.52934  -10.78366  -11.87435
      H1    12.19599  -10.12219  -12.12216
       H    15.50251   -8.34989  -15.19156
       O    15.35608   -9.00048  -14.43508
      H1    15.02216   -9.80617  -14.87582
       H    13.27587  -11.15268  -15.09115
       O    14.22980  -11.31072  -14.92736
      H1    14.40679  -12.23754  -15.07326
       H    13.48179   -7.83433  -12.18898
       O    13.25739   -8.66528  -12.66542
      H1    13.89999   -8.58879  -13.38912
       H     9.63135   -4.72178  -19.28366
       O    10.31174   -5.41243  -19.19226
      H1    10.88444   -5.56201  -19.95249
       H    11.80973   -7.48121  -13.69104
       O    11.33185   -7.16701  -14.47646
      H1    10.44026   -6.99947  -14.09225
       H    14.60313   -7.98387  -16.90153
       O    15.38538   -7.53869  -16.73246
      H1    15.16598   -6.59965  -16.88197
       H    17.32050   -4.77294  -16.59810
       O    16.36555   -4.90540  -16.38165
      H1    16.33661   -5.09667  -15.44333
       H    10.90785  -10.69229  -15.71658
       O    11.72596  -11.12652  -16.09783
      H1    12.17166  -10.33615  -16.49235
       H    11.67582   -4.53527  -18.31901
       O    12.34033   -3.83966  -18.45345
      H1    12.81926   -3.80036  -17.60655
       H    16.48972  -11.18690  -12.10605
       O    16.25613  -10.23895  -12.04708
      H1    15.75704  -10.07161  -12.83504
       H    19.82836   -6.18296  -16.76280
       O    19.35475   -7.01901  -17.00098
      H1    20.01978   -7.42082  -17.59231

