90
frame 1 | Written by MDAnalysis XYZWriter (release 2.4.3)
       H    12.27044  -16.54966   16.14178
       O    11.92559  -16.16194   17.03692
      H1    11.16524  -15.71589   16.60482
       H    10.10322  -14.41347   15.52734
       O     9.56161  -15.02012   16.12482
      H1     9.14327  -14.33563   16.73490
       H    11.76590  -12.86637   18.65815
       O    10.96143  -12.47980   18.97996
      H1    11.23354  -11.72412   19.51294
       H     6.70186   -8.90469   18.47850
       O     5.74820   -8.79629   18.45633
      H1     5.44793   -9.42390   17.80536
       H    11.19095   -4.58782   13.92240
       O    11.49259   -4.02943   14.68001
      H1    11.40465   -4.60883   15.41555
       H    16.04686   -7.82478   18.88741
       O    15.36796   -7.46237   18.21663
      H1    15.92497   -7.01284   17.56804
       H    13.43578  -11.94895   12.60327
       O    14.31706  -11.94292   13.05113
      H1    14.06519  -12.07181   13.92267
       H    14.31031  -15.44781   17.88412
       O    14.94694  -15.79617   17.23813
      H1    14.48616  -15.49191   16.41094
       H     5.88047   -6.38343   16.88618
       O     6.41580   -6.75944   16.13724
      H1     6.15239   -7.72370   16.13693
       H     7.81695   -5.95304   16.98599
       O     8.46120   -5.83685   17.76146
      H1     8.45897   -6.72273   18.13802
       H    12.62334  -13.47342   14.97074
       O    13.49357  -13.43963   15.36489
      H1    13.38654  -13.66427   16.30414
       H     9.29237   -9.04999   18.36817
       O     8.45307   -8.76675   18.68416
      H1     8.61288   -9.00610   19.62343
       H    10.05343  -13.19809   13.92873
       O    10.87613  -13.66837   14.17849
      H1    10.85893  -14.41438   13.53435
       H     8.03498  -11.52961   14.29035
       O     8.10661  -12.42316   14.00161
      H1     7.54327  -12.86289   14.67092
       H     4.73042   -9.11712   14.96544
       O     5.56485   -9.48170   15.19426
      H1     5.33425   -9.95521   15.99402
       H    15.72512   -8.69455   16.78992
       O    16.31390   -9.00108   16.10869
      H1    15.85940   -8.70082   15.33696
       H    11.04242   -7.35450   13.62091
       O    11.03120   -8.28106   13.99847
      H1    10.09393   -8.30366   14.39130
       H    11.50618   -4.42750   17.75467
       O    11.33711   -5.15044   17.13164
      H1    10.33853   -5.27816   17.27072
       H     8.27828  -12.08549   12.38196
       O     8.76499  -11.88813   11.57316
      H1     8.13045  -12.07534   10.87600
       H     5.33533  -11.72417   17.94536
       O     6.05603  -11.69263   17.28543
      H1     6.80047  -12.09739   17.75079
       H    12.17762   -6.42761   18.53443
       O    12.56519   -7.18616   18.94467
      H1    13.24966   -7.28615   18.24693
       H     9.86749   -9.23336   12.52660
       O     9.15679   -9.23104   11.88647
      H1     9.02371  -10.19658   11.72609
       H    17.46468  -12.41942   15.42525
       O    16.80192  -12.52154   16.14935
      H1    16.46700  -11.56487   16.25396
       H    13.55161   -8.34430   14.82491
       O    14.27677   -7.73762   15.09156
      H1    13.79902   -7.25561   15.79604
       H    11.73055   -8.91475   18.18271
       O    10.95251   -9.39834   17.79701
      H1    11.16262  -10.33869   17.91179
       H     7.18810   -9.23617   14.48327
       O     8.08875   -9.52544   14.38898
      H1     8.33135   -9.43001   13.38623
       H     8.53340  -13.93249   18.76185
       O     8.47976  -13.38202   18.02991
      H1     9.21396  -12.69459   18.23284
       H    12.57095  -14.60504   18.16688
       O    13.03082  -13.80512   17.98735
      H1    13.74557  -13.83523   18.66776
       H     5.88764  -12.93678   16.15019
       O     6.01909  -13.49529   15.37982
      H1     5.71122  -12.86357   14.66145
       H     8.68819  -16.40117   17.69310
       O     8.27258  -16.71853   18.48124
      H1     7.29957  -16.84287   18.28053

