90
frame 0 | Written by MDAnalysis XYZWriter (release 2.4.3)
       H   -14.96674   14.72064    4.70422
       O   -14.19833   15.09385    5.18236
      H1   -13.61365   15.04607    4.43560
       H   -12.75009   18.89057   -3.54705
       O   -12.18414   18.12598   -3.57160
      H1   -11.85008   18.17081   -2.69632
       H   -11.56473   10.10209    0.52765
       O   -11.98388   10.75312    1.10192
      H1   -12.55527   11.27967    0.49550
       H    -6.82045   17.51920   -1.12629
       O    -6.70119   18.17239   -0.42081
      H1    -6.04561   18.78626   -0.76012
       H    -7.36875   16.21716    2.24540
       O    -6.46966   16.22779    2.59761
      H1    -6.26416   17.15854    2.62008
       H    -5.23978   12.29684    0.09743
       O    -5.64245   12.40833   -0.76817
      H1    -6.41591   11.82219   -0.71848
       H   -13.80857   18.69951    2.99056
       O   -13.27846   18.09978    2.50632
      H1   -12.36396   18.51393    2.43916
       H    -8.28856   16.20078   -2.37194
       O    -7.31173   16.34258   -2.40221
      H1    -7.27126   16.48601   -3.31495
       H   -11.20518   13.87488   -2.56779
       O   -10.30834   14.18054   -2.47900
      H1    -9.94629   13.38096   -2.08944
       H    -9.05718   14.97139    3.49340
       O    -9.12573   14.09243    3.12534
      H1    -8.39999   13.63331    3.53167
       H   -10.48556   10.53013   -1.49432
       O   -10.74473   11.21089   -2.17244
      H1    -9.97362   11.16019   -2.83619
       H    -7.88028    9.92678    0.32760
       O    -8.16193   10.89643    0.22047
      H1    -8.60133   11.05264    1.04697
       H   -13.68787   17.94329    0.81822
       O   -13.82840   17.95427   -0.16496
      H1   -14.29671   18.76957   -0.31308
       H    -9.47634   11.91526    2.79809
       O    -9.58741   11.01771    2.40167
      H1   -10.43559   11.09340    1.84737
       H    -8.12417   14.20015   -4.30416
       O    -7.66588   13.86247   -5.08836
      H1    -7.61176   12.97623   -4.80933
       H   -12.32377   15.36874    2.40953
       O   -12.14359   15.70640    3.29110
      H1   -12.80846   16.48438    3.22638
       H    -6.90082   12.92281    4.85209
       O    -6.96720   11.99864    4.52540
      H1    -7.76218   11.56204    5.06936
       H   -10.34591   15.57335   -3.61068
       O   -10.06214   16.35372   -4.10811
      H1   -10.68462   17.00357   -3.78481
       H    -5.15028   14.03749    4.47447
       O    -5.98716   14.49615    4.53440
      H1    -5.98077   15.04020    3.73276
       H    -9.55877   15.84186    4.89635
       O    -9.55529   16.44525    4.13880
      H1   -10.43360   16.23977    3.74633
       H   -10.68748   15.24646   -1.12729
       O   -11.17493   15.50186   -0.32983
      H1   -11.05514   16.45390   -0.46551
       H    -9.77781   19.15265    1.95267
       O   -10.60229   19.36635    2.36251
      H1   -10.37532   19.69455    3.24913
       H    -5.63239   15.76184    1.05643
       O    -5.06560   15.43015    0.35885
      H1    -5.61037   14.69095   -0.03836
       H   -13.88492   13.22690    1.40166
       O   -13.72615   12.75068    2.18849
      H1   -12.76411   12.57467    2.16235
       H    -7.89351   18.55388    4.91885
       O    -8.39366   19.02707    4.19732
      H1    -8.86815   18.17268    4.01911
       H   -10.30690   18.70483    5.18607
       O   -11.21420   18.88321    5.40463
      H1   -11.68910   18.02969    5.39970
       H    -9.59967   15.70642    0.67860
       O    -8.64531   15.53258    0.90549
      H1    -8.77415   14.86252    1.63888
       H   -14.48634   15.22178   -0.29677
       O   -13.85818   14.98951    0.37605
      H1   -12.99713   15.12422   -0.04865
       H   -12.03894   18.21658   -0.57403
       O   -11.29348   18.11103   -1.20279
      H1   -10.52904   18.67951   -0.76200
       H    -4.05114   19.48881    2.03712
       O    -4.84876   18.92249    2.05322
      H1    -4.88367   18.66113    1.11674

