90
frame 1 | Written by MDAnalysis XYZWriter (release 2.4.3)
       H    18.91610  -11.26497   13.18935
       O    19.38372  -12.00801   12.73873
      H1    19.29029  -12.69862   13.43297
       H    14.63501  -12.81357    4.15199
       O    13.75875  -12.66009    3.66168
      H1    13.24280  -13.47531    3.81306
       H    17.64966  -11.14441   15.14890
       O    17.86804  -11.80876   15.80493
      H1    17.01335  -12.18593   16.12556
       H    14.26887   -7.21272   12.12042
       O    13.78956   -7.32143   11.26952
      H1    14.25070   -6.87909   10.55726
       H    17.91582  -11.54584    8.32591
       O    17.27243  -11.27288    9.04087
      H1    17.46753  -12.02130    9.65959
       H    16.38141  -12.87564    5.51791
       O    16.53229  -12.99262    4.58841
      H1    16.82394  -12.19539    4.11542
       H    14.07751   -9.26411    6.18629
       O    14.81874   -9.84773    6.34525
      H1    14.62822  -10.17542    7.23475
       H    15.81138  -16.93008   12.71696
       O    16.42948  -17.11086   11.97622
      H1    17.34740  -16.87252   12.23495
       H    18.19344  -13.25364   11.50429
       O    18.26127  -13.29934   10.55585
      H1    19.06650  -12.85572   10.46712
       H    13.44533  -13.99353    9.51613
       O    13.39631  -13.13654    9.12487
      H1    12.47254  -12.88562    9.05328
       H    13.69338   -9.09008    9.86200
       O    13.79457   -9.71537    9.14848
      H1    13.44174  -10.50898    9.57549
       H    19.36603  -15.38860   13.55469
       O    19.45847  -14.60786   14.10066
      H1    19.20413  -14.91860   14.98047
       H    10.85850  -11.61471   12.46443
       O    11.39719  -11.45382   13.21494
      H1    12.22293  -11.92474   13.05816
       H    19.25263  -10.51864    5.40529
       O    18.92942   -9.67697    5.12406
      H1    18.37502   -9.92394    4.33780
       H    13.92471   -5.52381    9.01118
       O    14.72750   -6.04704    9.16105
      H1    14.94267   -6.44171    8.29311
       H    14.66171  -12.84975    7.64600
       O    15.47765  -12.72891    7.20462
      H1    16.02665  -12.19624    7.75295
       H    15.04673  -14.75620   14.13647
       O    14.19967  -14.35423   13.96423
      H1    14.43118  -13.55854   13.35370
       H    14.34469  -16.54613   11.01597
       O    14.14968  -15.96328   10.18925
      H1    15.06260  -15.83975    9.83022
       H    15.43935   -7.75468   14.17442
       O    15.44420   -7.29074   13.32886
      H1    15.50319   -6.38324   13.59641
       H    16.29796  -15.94600    4.38744
       O    15.56305  -15.38323    4.04731
      H1    16.01307  -14.53273    4.13228
       H    14.67106  -11.25368   12.24316
       O    14.30177  -12.12053   12.17037
      H1    14.58528  -12.37095   11.30392
       H    17.49017  -14.82695   10.01403
       O    16.88119  -15.42853    9.66230
      H1    16.91409  -16.12817   10.32377
       H    18.64203   -8.75213    6.59439
       O    18.50012   -8.32427    7.45130
      H1    19.06546   -7.55854    7.39583
       H    17.90676   -8.97198   14.25366
       O    17.76470   -9.86261   13.81274
      H1    17.01230   -9.74610   13.27349
       H    19.79263  -16.46893   11.75410
       O    19.11286  -16.63107   12.40315
      H1    19.37651  -17.48125   12.81733
       H    18.18295   -7.78001   10.63863
       O    17.90855   -6.93235   11.01710
      H1    17.29479   -7.22619   11.68877
       H    15.60126   -8.50707    6.81702
       O    15.91657   -7.57531    7.04805
      H1    16.86894   -7.82904    7.15358
       H    17.00003  -16.36476    7.61469
       O    17.28404  -17.10089    7.05308
      H1    16.42227  -17.44054    6.69485
       H    15.92965  -10.03723   10.62834
       O    15.98119   -9.75888   11.50980
      H1    15.61633   -8.86392   11.52625
       H    18.99269   -8.65568    9.06774
       O    19.04518   -9.03584    9.92305
      H1    18.55018   -9.81913    9.84815

