90
frame 2 | Written by MDAnalysis XYZWriter (release 2.4.3)
       H     9.28825    8.42610  -12.14974
       O     8.74887    8.84244  -11.44278
      H1     9.11515    8.61871  -10.52482
       H     6.82484   14.50191   -2.65738
       O     6.30748   13.79094   -2.97318
      H1     6.94398   13.38169   -3.56885
       H     7.08584   13.66042   -6.37832
       O     7.69384   13.31681   -5.65111
      H1     7.54926   12.35808   -5.58664
       H     8.02536   10.30481   -5.56361
       O     7.38807   10.55150   -4.88453
      H1     6.63312    9.99116   -5.01677
       H     4.48532    6.46203   -5.15480
       O     4.52490    6.95470   -6.00517
      H1     3.57925    6.91047   -6.18321
       H     8.26072    9.14282   -1.73823
       O     7.46826    9.22681   -2.27318
      H1     7.64576    9.68908   -3.18059
       H    11.91181   10.78230  -10.97252
       O    11.92383   11.56619  -10.34027
      H1    11.61248   11.08481   -9.48552
       H     8.76995    9.45373    0.95353
       O     9.06439    9.47732    0.03593
      H1     8.73798   10.30381   -0.24816
       H    12.80263   10.85697   -3.18793
       O    12.65357    9.90507   -3.39885
      H1    12.07689    9.67994   -2.70865
       H     9.53767    8.40557   -8.36097
       O     9.91993    7.98241   -9.15903
      H1     9.57042    7.10321   -9.13595
       H     4.91101    8.43057   -0.16477
       O     5.78752    8.77732   -0.12576
      H1     5.92770    9.21679   -0.97727
       H    11.60561    9.85559   -7.40599
       O    11.12047   10.29054   -8.10652
      H1    10.62395   10.99066   -7.67657
       H     9.50454   12.53073   -6.21923
       O    10.35041   12.39307   -6.63655
      H1    11.02660   12.73662   -6.00748
       H     2.67752   12.11240   -5.06146
       O     3.27646   11.42744   -4.72893
      H1     2.67578   10.94147   -4.16745
       H     7.94747   12.95483  -10.20499
       O     7.03604   12.84440   -9.92175
      H1     6.61566   13.47793  -10.50597
       H     9.34465    8.74054   -6.40762
       O     8.59283    9.02269   -6.93592
      H1     8.00267    8.23132   -6.99896
       H    11.97232    5.91832   -1.90819
       O    11.14953    6.43222   -2.07197
      H1    11.44851    6.75755   -2.93341
       H     9.51961    4.81105   -4.53278
       O     9.99533    4.96947   -5.38167
      H1    10.89891    4.53478   -5.30465
       H     5.83547    6.90004   -7.33931
       O     6.74856    7.05434   -7.67883
      H1     6.69447    7.98809   -7.97010
       H     5.31080   10.32610   -8.45643
       O     5.48048   10.35457   -7.52333
      H1     5.11386    9.57200   -7.08305
       H     7.37944   10.03739  -11.25602
       O     6.48209   10.28085  -10.89663
      H1     6.56477   11.18192  -10.62676
       H     4.84120    6.92123   -2.36677
       O     3.91457    7.01754   -2.68013
      H1     4.10307    7.70202   -3.29795
       H    12.76467    9.56547   -5.11610
       O    13.37707    9.35052   -5.80995
      H1    13.67756    8.47716   -5.64208
       H     4.82560    8.43282   -5.18685
       O     4.95035    9.15809   -4.58840
      H1     4.36815    9.88201   -4.85555
       H     4.10825   15.01485   -5.46067
       O     3.83527   14.86350   -6.36316
      H1     4.51567   14.25301   -6.70259
       H     7.34431    6.07129   -2.78181
       O     6.65376    6.58588   -2.41642
      H1     7.09968    7.42463   -2.41640
       H     6.22190   13.35672   -8.40349
       O     5.81223   13.23532   -7.51342
      H1     5.54902   12.32511   -7.55391
       H    11.87683    8.16625   -8.65320
       O    12.65328    7.67897   -8.96729
      H1    13.20203    7.39581   -8.18902
       H    10.49427    6.84174   -5.54777
       O    10.98101    7.65025   -5.76829
      H1    11.26181    7.64706   -6.73399
       H    13.15309   12.94414   -5.04977
       O    12.44508   13.58728   -5.06173
      H1    12.09442   13.69884   -4.13472

