90
frame 1 | Written by MDAnalysis XYZWriter (release 2.4.3)
       H    11.75218  -12.23457   -3.64996
       O    10.86632  -12.66127   -3.90493
      H1    10.84215  -12.26558   -4.81873
       H    14.49552   -9.35845  -12.85161
       O    14.34611   -8.86171  -13.67556
      H1    14.70350   -8.03983  -13.32683
       H    13.05862   -8.49632   -7.58323
       O    13.89164   -9.00267   -7.46897
      H1    14.23555   -8.84083   -6.60791
       H    12.62611  -10.75175   -9.51445
       O    13.55265  -10.91257   -9.25328
      H1    13.77763  -10.12919   -8.72448
       H    14.68805   -3.99157   -5.76697
       O    14.53892   -4.78631   -6.30385
      H1    13.83944   -5.32550   -5.97706
       H    12.73405   -9.05615   -4.68567
       O    13.54492   -9.26423   -4.17540
      H1    13.43911  -10.18620   -3.99204
       H    13.56671   -4.42344   -8.04472
       O    13.24348   -4.14640   -8.97021
      H1    12.46487   -4.75119   -9.01431
       H    17.50567   -6.29196   -6.42339
       O    16.84060   -6.78358   -5.91226
      H1    16.04233   -6.28633   -6.10600
       H    12.99360   -8.21684   -1.26842
       O    12.58609   -7.84715   -2.04979
      H1    12.85484   -8.45508   -2.78889
       H     8.68098  -11.83854   -7.30422
       O     7.80244  -12.09608   -7.03515
      H1     7.39171  -11.27205   -7.31843
       H    10.45397  -10.18716   -9.71029
       O    11.10355  -10.27953  -10.42595
      H1    10.93474  -11.15742  -10.84866
       H    11.05924  -11.92598   -7.20865
       O    10.85519  -11.56650   -6.34841
      H1    11.19728  -10.65269   -6.40609
       H    13.91489  -12.28959   -2.95301
       O    13.18155  -11.65894   -3.11236
      H1    13.19743  -11.22201   -2.25818
       H    15.93689   -6.20344   -9.17383
       O    16.42969   -5.56391   -8.71098
      H1    17.23273   -5.41695   -9.29250
       H    17.74357  -10.13742   -6.90180
       O    17.99691   -9.54377   -6.18039
      H1    17.58280   -8.68479   -6.26237
       H    10.07088   -7.74568   -7.76551
       O    10.12208   -7.92338   -8.74786
      H1    10.38170   -7.04494   -9.08592
       H    10.50524   -4.58076   -8.88593
       O    10.91501   -5.39797   -9.30019
      H1    10.83608   -5.19480  -10.25160
       H    11.17164   -5.70893   -4.78118
       O    12.02293   -6.08786   -5.18266
      H1    12.55343   -6.07178   -4.38647
       H     8.87442   -8.40192  -10.32057
       O     7.99816   -8.67172  -10.57578
      H1     7.65116   -7.86019  -10.90473
       H     9.15189   -9.44937   -4.29159
       O     8.65876   -9.43492   -5.15388
      H1     8.47237  -10.32951   -5.39429
       H     9.50328   -6.16540  -12.33198
       O    10.44302   -5.92195  -12.12495
      H1    10.88278   -6.73927  -11.89220
       H    16.82685  -10.52598   -8.92023
       O    16.90243   -9.59803   -9.27418
      H1    17.85168   -9.37196   -9.31514
       H    10.96706   -3.26799   -6.97402
       O    10.04232   -3.45595   -7.34203
      H1     9.70630   -2.55106   -7.56199
       H    10.15753   -8.99417   -5.67881
       O    11.03708   -8.61779   -5.85365
      H1    11.10023   -7.86835   -5.26933
       H    16.85495   -9.97801   -4.68610
       O    16.46134  -10.33497   -3.88988
      H1    15.75447   -9.70496   -3.74346
       H    11.88889  -13.53927   -8.57762
       O    10.91860  -13.47710   -8.67923
      H1    10.62466  -14.38832   -8.71624
       H    13.86650  -12.70606   -8.20749
       O    13.52559  -13.58801   -8.26835
      H1    13.28216  -13.91073   -7.37320
       H    15.97386   -9.88906  -10.95969
       O    15.27334  -10.20214  -11.52017
      H1    14.76855  -10.51687  -10.78711
       H    15.65153   -7.04947  -11.29340
       O    14.95854   -7.28483  -10.66440
      H1    15.14059   -8.18945  -10.42341
       H    13.17745   -7.48700  -11.22889
       O    12.29732   -7.62936  -11.54704
      H1    12.20543   -8.56753  -11.37923

