90
frame 1 | Written by MDAnalysis XYZWriter (release 2.4.3)
       H     3.02573  -11.36672   17.16679
       O     3.25276  -10.40344   17.42505
      H1     2.57027  -10.23115   18.06114
       H    10.10322  -14.41347   15.52734
       O     9.56161  -15.02012   16.12482
      H1     9.14327  -14.33563   16.73490
       H     4.00923  -11.14532   10.69982
       O     3.23629  -10.68937   11.11292
      H1     2.91646  -11.19543   11.84868
       H     3.19313  -16.90858   15.95302
       O     2.96191  -17.83452   15.89343
      H1     2.58374  -17.86733   14.99830
       H     6.70186   -8.90469   18.47850
       O     5.74820   -8.79629   18.45633
      H1     5.44793   -9.42390   17.80536
       H     5.64559  -11.54938   11.78685
       O     6.01758  -11.71875   10.91442
      H1     5.54071  -12.44978   10.59050
       H     5.88047   -6.38343   16.88618
       O     6.41580   -6.75944   16.13724
      H1     6.15239   -7.72370   16.13693
       H     5.73812   -7.60227   11.46358
       O     6.05326   -7.72677   12.38428
      H1     5.36251   -8.33454   12.75563
       H    10.05343  -13.19809   13.92873
       O    10.87613  -13.66837   14.17849
      H1    10.85893  -14.41438   13.53435
       H     8.03498  -11.52961   14.29035
       O     8.10661  -12.42316   14.00161
      H1     7.54327  -12.86289   14.67092
       H     2.28804  -13.16855   18.01382
       O     2.35297  -12.89489   17.07300
      H1     1.44095  -12.75434   16.75574
       H     5.23521  -16.73899   18.91704
       O     5.26922  -16.95904   17.94907
      H1     4.89744  -16.21604   17.55387
       H     1.64840  -11.52818   13.23779
       O     2.44632  -11.67169   13.75433
      H1     2.27224  -12.48757   14.20909
       H     2.51126   -9.31948   16.16874
       O     1.85654   -8.96747   15.46432
      H1     2.41479   -9.09102   14.67925
       H     4.73042   -9.11712   14.96544
       O     5.56485   -9.48170   15.19426
      H1     5.33425   -9.95521   15.99402
       H     3.51873   -7.76656   13.52723
       O     3.64228   -8.73799   13.35875
      H1     3.18240   -8.89837   12.52375
       H     0.84490  -14.81983   14.73916
       O     0.95660  -14.29775   13.95228
      H1     0.04370  -14.33375   13.54578
       H     5.13390  -14.94113   10.65129
       O     4.44427  -14.43168   10.25239
      H1     3.72258  -14.96489   10.64704
       H     7.54454  -15.73789   11.04730
       O     6.58317  -15.82760   11.27779
      H1     6.66302  -15.91148   12.25831
       H     8.27828  -12.08549   12.38196
       O     8.76499  -11.88813   11.57316
      H1     8.13045  -12.07534   10.87600
       H     5.33533  -11.72417   17.94536
       O     6.05603  -11.69263   17.28543
      H1     6.80047  -12.09739   17.75079
       H     9.86749   -9.23336   12.52660
       O     9.15679   -9.23104   11.88647
      H1     9.02371  -10.19658   11.72609
       H     4.56305  -14.82950   15.84572
       O     3.77765  -15.21455   16.27738
      H1     3.34475  -14.42529   16.67813
       H     7.18810   -9.23617   14.48327
       O     8.08875   -9.52544   14.38898
      H1     8.33135   -9.43001   13.38623
       H     1.89251  -15.12693   12.71411
       O     2.37641  -15.57613   12.01941
      H1     3.29498  -15.32438   12.26370
       H     8.53340  -13.93249   18.76185
       O     8.47976  -13.38202   18.02991
      H1     9.21396  -12.69459   18.23284
       H     4.13690  -11.49293   13.73295
       O     5.06920  -11.56385   13.46264
      H1     5.43834  -10.76484   13.93535
       H     5.88764  -12.93678   16.15019
       O     6.01909  -13.49529   15.37982
      H1     5.71122  -12.86357   14.66145
       H     8.68819  -16.40117   17.69310
       O     8.27258  -16.71853   18.48124
      H1     7.29957  -16.84287   18.28053
       H     6.31109  -15.59592   14.67917
       O     6.49062  -16.35692   14.11087
      H1     7.34928  -16.59738   14.39909

