90
frame 1 | Written by MDAnalysis XYZWriter (release 2.4.3)
       H    10.35936   14.58320   13.58306
       O     9.64507   14.25895   12.96015
      H1     8.82221   14.74185   13.24492
       H    10.54058   11.03439   11.98060
       O     9.79660   10.61008   12.44532
      H1    10.12010    9.68974   12.49047
       H    11.90489    9.59195    7.88946
       O    11.30764    8.96453    8.35868
      H1    10.37796    9.19187    8.13227
       H    18.13078   12.07627   12.07001
       O    18.77709   11.84098   12.79270
      H1    19.25517   11.07955   12.37559
       H    17.76195   15.82711   11.76890
       O    18.09556   15.41756   10.94906
      H1    17.63035   16.05974   10.32239
       H    11.77433   16.09748    6.68405
       O    12.32797   16.60021    6.04364
      H1    12.53364   17.42071    6.53867
       H    14.15651   12.42193   11.29687
       O    14.32486   12.59974   10.36948
      H1    15.25200   12.44817   10.18481
       H    18.94131   14.50521    7.28552
       O    18.72152   15.47682    7.32834
      H1    18.95225   15.72180    6.42041
       H    13.28848   10.16258    9.67787
       O    12.77981    9.79358   10.47300
      H1    12.12770    9.23628   10.02045
       H    11.01200   15.49713   11.34651
       O    10.80735   16.47523   11.29757
      H1    10.28364   16.72723   12.10753
       H    11.41698   14.48045   15.46268
       O    11.59844   15.02377   14.67003
      H1    11.35068   15.92358   14.98622
       H    17.69053   15.28211   13.69212
       O    17.08100   16.02478   13.45313
      H1    16.18164   15.66340   13.74377
       H     9.05592   13.54847    9.69981
       O     8.98670   14.53022    9.66092
      H1     8.12064   14.60737    9.22202
       H    16.33286   17.16978   12.01754
       O    15.67280   17.85346   11.92227
      H1    15.22293   17.69291   12.76497
       H    14.26143   14.24805   10.09870
       O    14.31220   15.22857   10.24356
      H1    13.96233   15.25099   11.13663
       H    14.46141   18.72462    8.30330
       O    15.33316   18.67615    7.89017
      H1    15.90527   18.29647    8.61998
       H     9.49735   12.03267    9.67760
       O     8.77351   11.89369    9.08854
      H1     7.98120   12.00770    9.61668
       H    10.00919   15.17201    8.01856
       O    10.64443   14.95843    7.29971
      H1    11.31626   14.42741    7.87554
       H    17.42081   13.46734   10.51964
       O    17.22602   12.55269   10.32759
      H1    17.15593   12.53776    9.33571
       H    13.93314   15.88050    5.39070
       O    14.90400   15.83886    5.24491
      H1    14.83007   14.96626    4.79619
       H    14.01756   17.10324    9.88336
       O    13.49280   17.92118    9.77479
      H1    13.02829   17.76557   10.66677
       H    12.83240   13.62843   13.50689
       O    13.08318   12.77735   13.10625
      H1    13.21679   12.25164   13.87333
       H    14.91831   15.14804    6.96806
       O    14.98564   14.53593    7.70483
      H1    15.04141   15.21313    8.37829
       H    14.53378   11.29729    8.39526
       O    13.70843   10.87602    8.03780
      H1    13.96217   10.30139    7.27598
       H    12.78094   12.64893    8.15899
       O    12.64030   13.60364    8.28131
      H1    13.48756   13.94480    8.03445
       H    12.59063   13.41829    6.23291
       O    13.06481   13.13998    5.43887
      H1    12.55152   13.53829    4.67318
       H    16.36638   11.73181    6.84836
       O    16.46131   12.12446    7.72733
      H1    16.02853   13.02216    7.57578
       H    13.37838   15.46669   13.79166
       O    14.30787   15.19259   13.60846
      H1    14.41726   14.40504   14.21231
       H    18.13132   17.52681    8.89349
       O    17.24659   17.08250    9.04710
      H1    17.30322   16.29322    8.47005
       H    11.60614   12.80360   10.30449
       O    11.10232   12.01970   10.44758
      H1    11.75087   11.34146   10.45701

