90
frame 0 | Written by MDAnalysis XYZWriter (release 2.4.3)
       H     0.60250   -0.85471    4.91952
       O     0.14878   -0.57603    4.06845
      H1    -0.76172   -0.70857    4.35474
       H    -1.96458   -4.89480   -0.14083
       O    -1.67163   -5.74096    0.33890
      H1    -2.50818   -6.04573    0.67930
       H    -0.80785    0.54656   -0.39531
       O    -1.12291   -0.27033    0.06554
      H1    -1.69470    0.15385    0.70995
       H    -5.07850   -6.31688    4.09823
       O    -5.47186   -5.55477    3.63712
      H1    -5.60878   -4.94563    4.39758
       H    -6.40916   -6.27229   -3.45447
       O    -5.68217   -6.16272   -2.74738
      H1    -5.42556   -5.24910   -3.01291
       H    -3.34736   -8.19166    4.99368
       O    -3.63228   -7.69504    4.18937
      H1    -3.05152   -6.95098    4.16498
       H    -3.34337   -0.35397   -2.55806
       O    -3.37984   -0.82468   -1.68231
      H1    -2.73027   -0.34218   -1.12251
       H    -3.44463   -3.07184    1.50030
       O    -3.89890   -3.26750    0.65264
      H1    -4.76363   -2.82738    0.76853
       H    -7.20978   -7.09755   -1.86735
       O    -8.03560   -7.40062   -1.40546
      H1    -7.92749   -6.83028   -0.64555
       H    -8.53383   -3.51280    2.65001
       O    -8.43857   -2.58270    2.82954
      H1    -7.51707   -2.42070    2.47255
       H    -9.17231   -1.96181    0.88100
       O    -9.34449   -1.42220    0.08667
      H1    -8.46009   -1.36112   -0.24185
       H    -4.84925   -5.28048    0.70735
       O    -4.83392   -6.20559    0.89308
      H1    -5.26418   -6.21388    1.74570
       H    -1.94484   -6.29165   -2.43276
       O    -1.05055   -6.53767   -2.08842
      H1    -1.33095   -6.23837   -1.12371
       H    -6.45101   -2.21160    0.14805
       O    -6.45420   -2.08072    1.09904
      H1    -6.36264   -1.09877    1.17920
       H    -3.95725   -1.52407   -4.76857
       O    -3.98377   -2.47348   -5.12996
      H1    -4.64014   -2.36624   -5.83913
       H    -3.22009   -0.46284    4.35101
       O    -2.58081   -1.07901    4.66308
      H1    -2.79199   -1.92815    4.35886
       H    -7.00338    0.66321   -2.79986
       O    -6.97095   -0.13473   -3.39109
      H1    -6.66344   -0.72257   -2.71740
       H    -0.22160   -1.42560    1.15674
       O     0.03123   -2.11869    1.83638
      H1     0.01177   -1.50929    2.56644
       H    -6.43835   -5.51622    0.10519
       O    -7.31634   -5.04005    0.03515
      H1    -7.54129   -4.98880    0.97582
       H    -1.65327   -3.18534    2.71227
       O    -2.49021   -3.23867    3.16633
      H1    -2.46032   -4.24873    3.25839
       H    -6.69860    2.78671   -1.83518
       O    -7.07612    1.93700   -1.54370
      H1    -6.67982    1.84275   -0.66654
       H    -5.00174   -1.33497   -1.47033
       O    -5.92119   -1.71028   -1.47972
      H1    -5.61086   -2.66299   -1.67324
       H    -3.74380   -3.61805   -2.28967
       O    -4.66001   -3.61295   -2.58428
      H1    -4.54605   -3.09190   -3.42164
       H    -9.05918   -3.09531    4.37547
       O    -9.41456   -3.63773    5.10965
      H1    -8.58527   -4.16305    5.24946
       H    -6.11298    0.12250    5.40550
       O    -5.29487   -0.27941    5.10209
      H1    -5.05683   -0.71072    5.94774
       H    -4.85329    0.76178    1.17263
       O    -5.74436    0.75939    0.81769
      H1    -6.34706    1.21363    1.45771
       H    -4.45712   -8.40000    0.78802
       O    -4.66984   -9.31968    0.60378
      H1    -4.17261   -9.54306   -0.15888
       H    -9.60256   -5.75240    2.14621
       O    -8.75865   -5.36634    2.51630
      H1    -8.53960   -6.07078    3.17204
       H    -2.90903    1.69562    2.19453
       O    -3.05710    1.30178    1.28281
      H1    -3.22667    2.11136    0.82596
       H    -1.84411   -2.90142   -1.97595
       O    -2.12264   -3.67600   -1.42897
      H1    -2.61276   -3.18207   -0.71345

