90
frame 0 | Written by MDAnalysis XYZWriter (release 2.4.3)
       H    -6.39475   -7.70460  -11.97379
       O    -6.68642   -8.05831  -11.12658
      H1    -6.01781   -7.62975  -10.56123
       H   -11.71998   -9.99617  -11.76858
       O   -12.36427  -10.07772  -12.48794
      H1   -13.10896  -10.46650  -12.01709
       H   -10.02838   -8.08833   -9.65902
       O   -10.51556   -7.58836   -9.02924
      H1   -11.13341   -7.20074   -9.59457
       H   -10.25477   -9.81760  -16.40597
       O    -9.67877   -9.42219  -15.78756
      H1    -9.30045  -10.25798  -15.35428
       H    -8.87087   -7.10111  -12.14760
       O    -9.34425   -6.96796  -12.91088
      H1    -9.30270   -5.98916  -13.07822
       H   -11.61854   -7.55897  -12.29964
       O   -12.17731   -7.13918  -11.59975
      H1   -13.07928   -7.24139  -11.89786
       H    -8.94621   -4.42087  -11.18825
       O    -8.01591   -4.11204  -10.97859
      H1    -8.14162   -3.13251  -10.97576
       H   -10.06114   -6.62788   -7.38228
       O    -9.64366   -6.15619   -6.64514
      H1    -9.28094   -6.78007   -5.97937
       H    -6.31670   -5.40191  -13.48114
       O    -5.77827   -5.42031  -12.70707
      H1    -6.48079   -5.25563  -12.06339
       H   -10.99822   -4.26075  -10.41438
       O   -10.68510   -4.88147  -11.02628
      H1   -11.30294   -5.60531  -11.08005
       H    -9.83626   -9.09971   -7.95752
       O   -10.00286   -9.92075   -7.51694
      H1    -9.43425  -10.54184   -7.90472
       H    -7.77968   -2.79854  -13.94639
       O    -8.11460   -1.82895  -13.94275
      H1    -7.83807   -1.56189  -13.00711
       H    -6.45080   -8.97398  -13.87989
       O    -7.21411   -9.50181  -13.74292
      H1    -7.96156   -8.83498  -13.87963
       H    -9.50909   -4.56753  -14.69832
       O    -8.59412   -4.72813  -14.42008
      H1    -8.20564   -5.23298  -15.13492
       H    -9.65700  -12.18080  -13.01567
       O   -10.37684  -12.63764  -13.51147
      H1   -11.08108  -11.96445  -13.55149
       H    -5.90973  -11.31232  -10.48998
       O    -5.80028  -10.47220   -9.98519
      H1    -6.48426   -9.87798  -10.51426
       H   -11.77987   -8.82856  -13.83852
       O   -11.64863   -8.07072  -14.45812
      H1   -10.92688   -8.46501  -14.94350
       H    -8.05291   -4.86648   -9.40771
       O    -7.73305   -5.13064   -8.49455
      H1    -8.59476   -5.52275   -8.19627
       H    -7.57718  -11.18430  -12.71526
       O    -8.14419  -11.66991  -12.09497
      H1    -7.67366  -12.56212  -12.02674
       H    -8.46398   -7.63361  -17.74879
       O    -7.65121   -7.98199  -17.34703
      H1    -8.04445   -8.27544  -16.52082
       H    -5.97657   -6.00182   -8.95437
       O    -5.18649   -6.44973   -9.28634
      H1    -4.48337   -6.28815   -8.60881
       H    -9.13422   -3.08911  -16.68751
       O    -9.69126   -3.91331  -16.86784
      H1    -9.25015   -4.22191  -17.66568
       H    -9.54962  -10.40921  -10.13841
       O    -9.25361   -9.51108  -10.57559
      H1    -8.40035   -9.80139  -10.89572
       H   -11.18359   -4.39578  -12.52484
       O   -11.37884   -4.21769  -13.47026
      H1   -12.00751   -4.92925  -13.54974
       H    -3.89441   -8.46481  -13.90570
       O    -4.71174   -7.92455  -13.87422
      H1    -4.52371   -7.21382  -13.25665
       H    -3.99753   -3.03789  -13.78954
       O    -4.93695   -2.97629  -13.47403
      H1    -5.01605   -3.87070  -13.13331
       H   -12.88872   -5.24786  -15.42450
       O   -13.44681   -5.88211  -14.92134
      H1   -12.95634   -6.68616  -14.94738
       H   -12.89318   -5.98571  -10.03601
       O   -12.99121   -5.75382   -9.13767
      H1   -13.17910   -6.59968   -8.68187
       H   -11.46224   -3.89474  -16.79529
       O   -12.39692   -4.05251  -16.72901
      H1   -12.66929   -3.40921  -17.37795
       H    -6.56615   -6.91792  -16.01002
       O    -6.19219   -6.12263  -15.64953
      H1    -5.45746   -6.39731  -15.11378

