90
frame 0 | Written by MDAnalysis XYZWriter (release 2.4.3)
       H    15.25458   16.76546   -2.24426
       O    15.67637   17.68221   -2.28722
      H1    16.66957   17.52524   -2.12848
       H    16.15795    9.83342   -6.39106
       O    16.11685   10.08798   -7.34551
      H1    15.29581    9.63068   -7.66311
       H    13.77522   18.51134   -3.17537
       O    12.81109   18.30988   -3.05563
      H1    12.85775   17.77776   -2.26688
       H    16.90624   17.73103   -6.53485
       O    16.84728   18.39960   -7.24556
      H1    17.77743   18.36300   -7.46641
       H    15.09268   18.69687   -0.90486
       O    14.72366   19.21879   -0.19130
      H1    15.49890   19.75501    0.07673
       H    18.01523   18.53884   -0.95954
       O    18.22460   17.72598   -1.48642
      H1    17.96087   17.00285   -0.86869
       H    12.07262   15.93058   -7.88450
       O    12.27421   15.36609   -7.17846
      H1    11.84470   15.84020   -6.42675
       H    11.14224   15.64881  -10.96419
       O    11.31728   15.70773   -9.98573
      H1    12.18527   16.14116   -9.95844
       H    19.71286   15.29063   -3.48527
       O    18.87800   15.74694   -3.75499
      H1    18.51814   15.93679   -2.87790
       H    11.13071   14.15090   -3.75060
       O    11.58685   13.27715   -3.95044
      H1    10.90795   12.75771   -4.35418
       H    18.73575   11.04839   -3.87884
       O    19.41212   10.48407   -4.28677
      H1    19.36068   10.83371   -5.18728
       H    16.33957   11.42318   -3.96828
       O    16.60452   12.26635   -3.51679
      H1    15.97056   12.30849   -2.73371
       H    14.30504   17.08806   -9.05642
       O    13.44130   17.19751   -9.44042
      H1    13.46127   18.16422   -9.54753
       H    16.34702   13.10876   -6.88767
       O    17.27391   12.79007   -6.83451
      H1    17.66101   13.68997   -6.54417
       H    15.06145   15.51753  -11.56230
       O    14.57479   14.71314  -11.47935
      H1    14.39869   14.80839  -10.49222
       H    18.50110   13.99256   -1.09295
       O    18.06353   14.81469   -0.81814
      H1    18.32824   14.81911    0.10714
       H    18.76353   14.80865   -9.96444
       O    17.90038   15.04166  -10.33179
      H1    17.53986   14.13190  -10.20793
       H    18.72733   11.99903   -7.01362
       O    19.53641   11.44301   -6.95715
      H1    19.34997   10.58775   -7.38886
       H    18.01640   17.78337  -11.94357
       O    18.02892   18.21547  -11.08745
      H1    18.01695   19.12805  -11.34360
       H    14.16556   12.56231   -9.44264
       O    13.61345   11.89567   -9.83168
      H1    12.89372   12.40089  -10.24483
       H    10.61326   16.56176   -5.01355
       O    11.26263   17.12193   -5.33904
      H1    11.70460   17.22536   -4.47117
       H    17.55402   15.70367   -5.12793
       O    17.09540   15.80820   -5.97253
      H1    16.22058   15.48638   -5.69083
       H    15.53595   14.05138   -4.64147
       O    15.08957   14.84288   -4.39365
      H1    14.32748   14.90033   -5.00804
       H    15.81234   14.74618   -1.45163
       O    14.85300   15.06628   -1.65616
      H1    14.83073   14.69073   -2.54082
       H    13.82621   14.04200   -7.47141
       O    14.77896   13.96130   -7.45634
      H1    15.22060   14.72561   -7.86388
       H    19.60898   19.60923   -8.36638
       O    19.15484   18.78698   -8.44653
      H1    18.86330   18.87037   -9.32875
       H    13.18867   11.35329   -6.79015
       O    12.37807   11.00478   -6.42444
      H1    12.30671   10.06224   -6.70101
       H    17.62183   12.12320  -10.29465
       O    16.86856   12.59303   -9.75479
      H1    17.05511   12.46365   -8.83282
       H    18.92882   17.67610   -4.36668
       O    19.40257   18.51048   -4.56688
      H1    18.69075   19.12283   -4.83968
       H    16.75805   15.92604   -9.25091
       O    15.98148   16.06458   -8.60782
      H1    16.36118   16.82917   -8.11847

