90
frame 0 | Written by MDAnalysis XYZWriter (release 2.4.3)
       H    -9.25525   19.49653   14.58851
       O    -9.79554   19.76666   15.35640
      H1    -9.52595   19.17879   16.10259
       H     0.89763   15.44152   17.33916
       O     1.72232   15.49558   17.86625
      H1     1.31107   15.32161   18.76215
       H    -8.05661   15.53127   17.65742
       O    -8.94824   15.69702   17.79443
      H1    -9.41126   15.48500   16.99336
       H     2.79336   17.59827   15.39325
       O     3.61688   18.11520   15.35022
      H1     3.58891   18.42582   14.43259
       H    -8.13840   14.66698   14.54231
       O    -9.05107   14.72161   14.25460
      H1    -8.96071   13.97803   13.65150
       H    -3.27740   17.47463   11.06877
       O    -3.73766   17.93614   11.83167
      H1    -3.08279   18.64919   12.00383
       H    -0.65550   19.27648   19.41138
       O    -0.64206   18.68687   18.66198
      H1     0.16061   18.25782   18.81584
       H    -6.41143   15.41590   14.09642
       O    -6.40940   14.83412   14.92682
      H1    -5.51170   15.12091   15.33766
       H    -1.03596   15.14646   15.95428
       O    -0.09958   15.20004   15.77383
      H1    -0.15717   14.65532   14.94102
       H     3.21475   19.63656   12.95309
       O     4.07603   19.28378   13.02993
      H1     4.10213   18.59285   12.40903
       H     0.52198   16.88614   14.90012
       O     1.13730   17.31123   14.24001
      H1     0.66539   17.35040   13.42311
       H    -9.26342   18.70802   18.34342
       O    -8.85857   18.35977   17.53119
      H1    -8.80603   17.43101   17.79779
       H    -5.86025   16.21872   18.42757
       O    -6.00430   15.91857   17.54232
      H1    -6.45154   16.68808   17.10455
       H    -2.21256   13.82632   18.42768
       O    -1.49739   14.00843   17.82187
      H1    -0.83791   13.23798   17.86545
       H    -3.26931   15.36073   15.88331
       O    -3.71866   15.76478   15.15253
      H1    -3.59307   16.70676   15.44495
       H     0.71266   15.80905   11.44895
       O     0.18630   16.59027   11.81697
      H1    -0.52819   16.05996   12.21529
       H     1.99217   17.18072   18.30104
       O     2.05915   18.03091   18.82940
      H1     2.86229   18.35402   18.40280
       H    -4.07164   12.77621   15.86822
       O    -3.76947   12.20244   15.09360
      H1    -3.44124   11.36788   15.40857
       H    -7.32938   16.70231   11.29959
       O    -7.20412   16.51929   10.33586
      H1    -8.08191   16.69816    9.93023
       H    -2.86971   16.74310    9.18819
       O    -2.50846   16.27889    9.97873
      H1    -1.58685   16.49722    9.87230
       H    -5.00205   14.35128   17.43063
       O    -4.27390   13.66252   17.35319
      H1    -4.63255   12.93149   17.87486
       H     0.58500   18.51724    9.34282
       O    -0.08091   17.79515    9.39516
      H1     0.06256   17.64050   10.36525
       H    -1.95191   13.90994   12.81978
       O    -1.68588   14.77316   13.16319
      H1    -2.54623   15.07564   13.49098
       H    -7.48867   18.40473   16.42764
       O    -6.97089   18.03926   15.72115
      H1    -6.22247   18.66577   15.65589
       H    -6.78760   16.97020   14.04510
       O    -7.11559   16.75562   13.13937
      H1    -8.02212   16.46638   13.30777
       H     1.32833   12.95335   18.23295
       O     0.82577   12.74014   17.40199
      H1     0.66128   13.63473   16.97927
       H     3.73244   15.09566   14.54885
       O     4.21900   15.46513   15.29845
      H1     4.07502   16.43575   15.12863
       H    -5.89018   17.55968    9.49475
       O    -5.43142   18.38696    9.73163
      H1    -5.02796   18.14544   10.62545
       H    -1.94365   17.28020   18.55912
       O    -2.43779   16.60580   18.06312
      H1    -2.01195   15.74214   18.11495
       H    -2.46838   17.89523   16.78479
       O    -2.69557   18.58102   16.11327
      H1    -1.91261   19.19953   16.20580

