90
frame 0 | Written by MDAnalysis XYZWriter (release 2.4.3)
       H     7.46129   -3.58792   -3.01934
       O     6.89573   -4.29177   -3.44052
      H1     6.43279   -3.78898   -4.15317
       H     5.68154    0.37335   -4.56597
       O     4.90537    0.45351   -3.95370
      H1     4.59752   -0.50021   -3.94951
       H     8.21954   -8.53123   -1.29095
       O     8.94569   -8.99006   -0.72680
      H1     8.52115   -9.88560   -0.55162
       H    14.48214   -5.14848   -5.56707
       O    13.96775   -5.34057   -6.37506
      H1    13.12572   -5.64656   -6.03276
       H     9.32796   -3.74377   -5.65403
       O     9.16555   -4.44584   -5.05115
      H1     8.36451   -4.23259   -4.54504
       H    13.79590   -5.68267   -2.81611
       O    13.48295   -5.00307   -3.43660
      H1    13.78515   -4.19543   -2.92434
       H     2.38483   -4.79764   -4.40442
       O     3.23430   -4.46580   -4.66057
      H1     3.64783   -4.39165   -3.76316
       H     5.22698   -5.02916   -2.79936
       O     4.47679   -5.16443   -2.24170
      H1     4.08465   -6.00835   -2.49575
       H     7.52729   -5.80600   -7.36358
       O     7.62688   -4.82731   -7.61745
      H1     8.34240   -4.56025   -7.03420
       H     7.04509   -0.88219   -5.23925
       O     6.36900   -0.82938   -5.89883
      H1     6.04301   -1.76695   -5.96456
       H    10.95251   -6.80689   -1.80240
       O    10.08463   -6.50309   -1.58077
      H1     9.75838   -7.04381   -0.88919
       H     4.93029   -3.99231   -5.62961
       O     5.79454   -3.62671   -5.87864
      H1     6.13504   -4.26691   -6.57025
       H     5.46521   -6.99589   -5.34231
       O     4.72780   -7.63968   -5.16897
      H1     5.19931   -8.40697   -4.93196
       H     5.18371   -5.84958   -0.80994
       O     5.57937   -6.29408   -0.03742
      H1     5.96367   -5.46872    0.34990
       H     7.93893   -6.72516   -2.28644
       O     7.22669   -7.36882   -2.18691
      H1     6.71720   -7.04371   -1.42944
       H    10.32423   -4.52265   -2.40285
       O    10.20342   -3.55659   -2.52607
      H1    11.04499   -3.19034   -2.27403
       H    10.08294   -7.75808   -7.92953
       O    10.36867   -8.05614   -8.79778
      H1    10.34530   -7.19530   -9.26270
       H    10.27707   -4.42177   -8.56506
       O    10.72849   -4.97366   -9.26246
      H1    10.60571   -4.30125   -9.98609
       H    10.54266   -5.51706   -5.42962
       O    11.48333   -5.85391   -5.29165
      H1    11.74487   -5.11213   -4.63043
       H     8.14625   -1.47934   -0.52718
       O     8.50515   -2.32002   -0.17568
      H1     8.85374   -2.71052   -0.98000
       H     8.16314   -0.76520   -3.32647
       O     8.19705   -1.68570   -3.66109
      H1     9.11020   -1.76522   -3.85096
       H    12.94829   -1.41607   -2.06803
       O    12.12327   -1.11255   -2.40633
      H1    12.15740   -0.15904   -2.55445
       H    13.36005   -2.83164   -6.37505
       O    12.75960   -2.31515   -6.96542
      H1    12.89310   -2.83002   -7.77348
       H    10.87452   -2.82344   -7.03995
       O     9.97881   -3.05652   -7.18063
      H1     9.61906   -2.15036   -7.14866
       H    11.03938   -8.78288   -4.66728
       O    11.68329   -8.63661   -5.36761
      H1    11.63487   -7.70781   -5.57664
       H     7.94429   -4.62921  -10.64122
       O     7.47314   -3.99116  -10.14901
      H1     7.62707   -4.29701   -9.23928
       H     4.27977   -6.76713   -7.71978
       O     4.96093   -6.14948   -8.00336
      H1     4.43256   -5.33181   -8.06854
       H     9.98727   -4.49840    1.14062
       O     9.32225   -5.17516    1.39121
      H1     8.66858   -4.83842    0.74062
       H     8.93755   -0.47904   -8.31773
       O     8.95307   -0.55573   -7.31669
      H1     8.03530   -0.69927   -7.07849
       H     6.55095   -7.74853   -7.35443
       O     7.28098   -7.43308   -6.83645
      H1     7.63625   -8.17722   -6.43278

