90
frame 0 | Written by MDAnalysis XYZWriter (release 2.4.3)
       H    17.93490   -8.79221   16.26886
       O    18.88594   -8.88923   16.57065
      H1    19.28465   -8.90046   15.64526
       H    10.90269  -12.56734   18.73356
       O    10.12410  -12.08865   19.01472
      H1    10.19329  -12.24364   19.98971
       H    18.03749  -14.24182   12.22954
       O    17.86156  -13.35582   11.84581
      H1    17.55347  -12.90965   12.62528
       H    19.55572   -5.63535   15.43225
       O    19.14245   -6.10522   16.19235
      H1    19.37477   -7.04181   15.95783
       H    17.83141  -10.34292   11.15641
       O    18.62095   -9.96438   11.62415
      H1    18.93081   -9.30702   11.00534
       H    15.23546   -6.74670   19.33241
       O    14.88719   -5.95134   18.87304
      H1    15.30369   -5.86386   18.07296
       H    16.21273  -12.81881   17.61511
       O    16.45496  -12.86614   18.53995
      H1    17.16032  -12.14143   18.52025
       H    13.71599  -12.01125   13.44281
       O    14.60044  -12.26877   13.16933
      H1    14.92462  -12.73835   13.89623
       H    15.35793  -15.47202   18.03344
       O    15.50113  -15.70861   17.12711
      H1    16.04598  -16.48188   17.29978
       H    18.38210   -6.09445   18.05957
       O    18.31655   -6.48562   19.01420
      H1    17.74618   -5.75198   19.38072
       H    12.64297  -13.61366   15.32082
       O    13.43508  -14.22115   15.30291
      H1    13.26383  -14.78022   16.05559
       H    16.96093   -5.27256   13.03648
       O    16.71322   -4.72357   12.28060
      H1    17.06617   -3.87155   12.63125
       H    16.79184   -1.72059   19.36888
       O    16.38485   -2.27303   18.69530
      H1    16.53067   -3.14298   19.08228
       H    17.68487  -15.36008   19.38082
       O    18.20355  -14.94488   18.66812
      H1    17.61185  -14.25392   18.40770
       H    16.96034   -7.29372   12.56590
       O    16.90153   -7.46942   13.51514
      H1    16.00697   -7.72893   13.52787
       H    16.35415  -11.71930   13.71839
       O    17.29089  -11.56304   13.83051
      H1    17.54657  -10.88970   13.21881
       H    15.73779   -9.64930   19.61432
       O    15.96141   -8.91025   19.02575
      H1    16.95067   -8.93575   18.93328
       H    17.55490  -18.23359   17.32188
       O    17.41375  -17.51374   16.65371
      H1    17.78178  -16.84747   17.28434
       H    15.85740   -6.39471   15.58349
       O    16.37611   -5.79084   16.20748
      H1    17.35007   -6.08052   16.19269
       H    15.16827  -15.36581   13.14917
       O    15.75085  -15.30828   13.91024
      H1    15.32109  -15.14178   14.75583
       H    15.98754   -9.49090   17.42029
       O    15.96883   -9.72358   16.51359
      H1    15.58744   -8.91295   16.16623
       H    18.24475  -16.58188   13.25056
       O    18.91996  -16.14302   12.69068
      H1    19.12154  -16.82694   12.08920
       H    18.67839  -10.69135   17.33348
       O    18.69307  -11.22181   18.11287
      H1    18.43991  -10.59127   18.80730
       H    11.78039   -6.82661   18.15046
       O    12.27946   -7.17410   18.92307
      H1    13.19239   -7.07227   18.69353
       H    15.75633  -11.54337   16.16745
       O    15.71386  -12.54638   16.00460
      H1    14.71425  -12.78631   15.96080
       H    13.68157   -7.70707   14.92996
       O    14.47251   -7.13435   14.81761
      H1    14.18208   -6.28401   14.50980
       H    11.52789   -9.59287   18.42441
       O    11.21326   -9.81127   17.54709
      H1    10.83348  -10.73183   17.68713
       H    16.57853  -16.81228   13.75140
       O    17.19828  -17.60430   13.82262
      H1    17.35107  -17.68062   14.78761
       H    12.10913  -14.61605   18.02001
       O    12.16229  -13.63704   18.24037
      H1    12.90984  -13.57535   18.90384
       H    17.56102   -3.86126   16.37190
       O    18.24894   -3.12442   16.24397
      H1    17.79081   -2.36811   16.59518

