90
frame 1 | Written by MDAnalysis XYZWriter (release 2.4.3)
       H     3.04866  -18.41241   -2.26022
       O     3.44826  -19.18609   -1.81373
      H1     2.77319  -19.47161   -1.21119
       H     6.71083  -19.11894    7.52186
       O     5.98256  -18.57559    7.10766
      H1     6.31818  -18.38459    6.25448
       H    -1.06951  -14.00421    1.37194
       O    -2.06735  -14.04384    1.45644
      H1    -2.20953  -13.41884    2.15807
       H     2.11650  -14.65508    7.27897
       O     1.22147  -14.29188    7.15669
      H1     1.24750  -14.01177    6.21989
       H    -0.77262  -15.67040    8.58047
       O    -0.97113  -15.87743    7.69339
      H1    -0.38348  -15.30641    7.21211
       H     0.56853  -18.29819   10.29033
       O     0.12042  -17.88186   11.04183
      H1    -0.17079  -18.65342   11.54200
       H    -0.48727  -17.43236    7.38425
       O    -0.22986  -18.29282    6.91280
      H1    -0.50646  -18.14403    5.97046
       H    -4.31460  -16.68994   10.76221
       O    -3.65260  -16.62669   10.05263
      H1    -3.46089  -17.53944    9.83907
       H     4.50883  -19.49258    4.69353
       O     3.90250  -19.41851    5.52084
      H1     4.60655  -19.34864    6.24133
       H    -4.95561  -15.84712    0.95038
       O    -5.82612  -15.44927    1.10693
      H1    -6.19158  -15.87838    1.88473
       H    -1.92182  -18.85604    7.71575
       O    -2.64324  -18.62879    8.37191
      H1    -3.36122  -19.26229    8.01979
       H     4.43785  -17.61762    7.89972
       O     3.84721  -17.58568    8.65576
      H1     4.51591  -17.67262    9.36444
       H     3.22594  -17.89467    4.79809
       O     3.06409  -17.03297    4.45274
      H1     3.33905  -16.47322    5.21726
       H    -4.41518  -17.40855    6.92473
       O    -5.10773  -17.99481    6.52911
      H1    -5.92201  -17.40214    6.60490
       H     4.55822  -15.85068    1.02429
       O     4.82701  -16.38227    1.77679
      H1     4.95652  -17.26186    1.42071
       H    -0.52443  -13.91955    4.82311
       O    -0.02817  -13.09995    4.88263
      H1     0.43215  -12.88422    4.03521
       H    -6.45531  -15.67981    5.18506
       O    -6.09020  -15.80622    4.27921
      H1    -6.71896  -16.42404    3.92022
       H    -6.88586  -18.18055    2.38120
       O    -7.56631  -17.52279    2.52297
      H1    -8.19562  -17.97576    3.11986
       H    -0.42952  -17.51870    0.57967
       O    -0.12888  -16.91482   -0.13290
      H1     0.78442  -16.86115    0.07442
       H    -2.74677  -15.98649    7.30262
       O    -3.46237  -15.61415    6.75254
      H1    -3.06402  -15.55546    5.85225
       H     5.11238  -17.05586    4.40842
       O     6.07860  -17.04237    4.59201
      H1     6.53924  -17.08987    3.66136
       H     2.45557  -19.01631    9.03906
       O     1.58368  -19.40321    8.81649
      H1     1.37087  -19.02980    7.92005
       H     3.44858  -16.10764    7.46484
       O     3.53730  -15.75265    6.58471
      H1     4.28097  -15.14293    6.70704
       H     0.95418  -14.15040    0.91783
       O     1.03456  -14.43215   -0.02805
      H1     0.43124  -15.17429   -0.13246
       H    -3.01528  -18.39167    1.03039
       O    -3.44677  -17.58305    0.66940
      H1    -2.65662  -17.10417    0.43732
       H    -4.11494  -17.70637    5.14578
       O    -3.86038  -17.48906    4.23957
      H1    -4.44508  -16.75629    4.13098
       H     2.05946  -18.58312    2.37803
       O     1.28944  -17.99810    2.44239
      H1     1.76954  -17.20059    2.72923
       H    -2.07773  -16.21417    3.87421
       O    -1.75256  -15.37728    4.20149
      H1    -2.14997  -14.75619    3.57649
       H    -0.31143  -19.97162    4.32636
       O    -0.53166  -19.03658    4.21782
      H1     0.18694  -18.76607    3.68010
       H    -4.68466  -18.37947    2.99746
       O    -5.21488  -18.96947    2.38503
      H1    -4.83483  -18.76886    1.47093

