90
frame 0 | Written by MDAnalysis XYZWriter (release 2.4.3)
       H     6.08049   -1.69219    2.84546
       O     5.96132   -1.98826    1.90086
      H1     6.51162   -1.40610    1.36121
       H     4.47782   -7.53092    3.17780
       O     5.22311   -7.58542    2.53777
      H1     4.81279   -7.39991    1.64404
       H     0.65792   -7.42675    1.46991
       O     0.08791   -7.65224    0.69343
      H1     0.50160   -7.32846   -0.08649
       H     4.74213   -2.93559   -4.07937
       O     4.09230   -3.64013   -3.76973
      H1     4.71213   -4.30128   -3.39687
       H    -0.52047   -5.90664   -1.36903
       O     0.34101   -5.99340   -1.76763
      H1     0.26766   -6.67276   -2.48800
       H    -1.81291   -2.26783   -3.57681
       O    -2.40498   -1.67360   -4.08350
      H1    -2.02448   -1.63918   -4.96872
       H     0.06737   -4.82089   -3.03082
       O    -0.12281   -4.18343   -3.75047
      H1     0.71895   -3.91172   -4.12308
       H     5.70517   -6.18402    3.23676
       O     6.17187   -5.39115    3.65547
      H1     5.44239   -4.81607    4.07645
       H     5.67463   -3.22529    0.62986
       O     5.59956   -3.90345   -0.01631
      H1     6.27204   -3.72662   -0.66739
       H     1.46316   -6.42828    3.11763
       O     1.27667   -7.39852    3.02718
      H1     0.98910   -7.78906    3.83765
       H    -1.92487   -5.18599    0.32888
       O    -1.99331   -5.09782   -0.63534
      H1    -1.74215   -4.19424   -0.81058
       H     7.13394   -5.36359    2.25314
       O     7.55519   -5.39625    1.35732
      H1     6.89005   -5.13954    0.73120
       H    -1.05036   -5.61625    3.73558
       O    -0.69195   -5.42704    4.67281
      H1    -1.49765   -5.16067    5.13364
       H     1.34360  -10.28136    2.14628
       O     1.39164  -10.10920    1.19692
      H1     1.00520   -9.24388    1.18275
       H     3.00646   -2.21774   -0.83236
       O     2.63350   -2.81514   -1.51408
      H1     3.18627   -2.77763   -2.25285
       H    -0.30348   -2.06568   -1.15656
       O    -0.87687   -2.54056   -1.81620
      H1    -0.29663   -3.13633   -2.35090
       H     4.19072   -4.45321    5.86669
       O     4.29333   -4.06679    4.95903
      H1     3.58704   -4.47067    4.39056
       H     1.89618   -4.57379    2.41628
       O     1.90146   -4.91027    3.28302
      H1     1.04768   -4.61842    3.66723
       H     2.25276   -3.51211   -6.04419
       O     1.60291   -2.93924   -5.57765
      H1     0.81193   -2.89119   -6.11368
       H    -1.69209   -8.52888   -1.38762
       O    -1.89453   -8.94823   -0.55528
      H1    -1.22937   -8.46600   -0.00038
       H     4.23048   -7.61370   -2.22528
       O     3.67899   -8.32542   -2.53598
      H1     3.72971   -8.17981   -3.47327
       H     6.35064   -6.08432   -2.44269
       O     6.36549   -5.23629   -2.87825
      H1     7.21585   -4.99333   -2.56467
       H     5.01509   -6.42344   -0.17592
       O     4.25361   -6.89467    0.18107
      H1     3.43766   -6.35360    0.01912
       H     1.99139   -4.46231   -0.17207
       O     2.48638   -4.77679    0.53776
      H1     3.09914   -4.03081    0.62601
       H    -1.47406   -1.36134    2.35189
       O    -0.54182   -0.98338    2.50278
      H1    -0.60089   -0.11270    2.01048
       H    -2.62128   -5.18401    2.64171
       O    -1.88244   -5.72074    2.18058
      H1    -2.37600   -6.58619    2.10879
       H     7.55639   -7.81729   -1.78818
       O     6.56931   -7.59375   -1.66417
      H1     6.21024   -8.43895   -1.32196
       H    -0.04721   -9.04593   -2.55599
       O    -0.63319   -8.30073   -2.95139
      H1    -0.78403   -8.55741   -3.85583
       H     4.29729   -1.47348    1.91736
       O     3.38261   -1.28802    1.56997
      H1     2.83673   -1.16826    2.37573
       H     1.19723  -10.08529   -0.71992
       O     1.34700   -9.87030   -1.69349
      H1     1.98838   -9.16894   -1.72109

