90
frame 1 | Written by MDAnalysis XYZWriter (release 2.4.3)
       H   -15.37153   11.83840    1.38807
       O   -16.26744   12.03292    1.59470
      H1   -16.50417   12.67837    0.91687
       H   -17.65368   13.89654   11.41143
       O   -17.70837   12.96701   11.11201
      H1   -18.51420   12.88009   10.59376
       H   -18.48604   12.64413    4.72016
       O   -18.69035   12.17261    5.53384
      H1   -18.42320   12.87468    6.14010
       H   -11.41296   10.09197    9.77099
       O   -11.99100   10.68960    9.25974
      H1   -11.45608   11.45947    9.00701
       H   -13.62441   10.41927    9.01422
       O   -14.56953   10.37832    8.86033
      H1   -15.01304   11.27852    9.00317
       H   -17.09674   17.10249    4.80660
       O   -17.63226   17.69829    5.35616
      H1   -17.11324   17.55007    6.18394
       H   -15.93541    9.73233    7.90958
       O   -16.65335    9.14462    7.67330
      H1   -17.34580    9.24494    8.35396
       H   -17.67373   18.57359    7.82665
       O   -16.91535   17.98322    7.95934
      H1   -17.18468   17.19739    8.41897
       H   -13.40111   16.46950    6.55795
       O   -12.53785   16.81688    6.22303
      H1   -12.02481   16.01493    6.24754
       H   -15.44866   19.24761    3.81533
       O   -15.96009   18.91819    3.03902
      H1   -16.21691   18.02054    3.24282
       H   -17.03952   13.10162    2.84452
       O   -17.66186   13.55879    3.46436
      H1   -17.21050   14.41222    3.56535
       H   -13.54808   18.52072    5.43919
       O   -13.91405   19.38557    5.23291
      H1   -13.27913   19.92871    4.82077
       H   -14.35289   15.04264    7.83312
       O   -14.73913   15.40906    7.01924
      H1   -14.86477   14.63960    6.43178
       H   -13.27733   14.73663    9.58413
       O   -13.45385   13.98670    9.07511
      H1   -14.21095   13.51789    9.49975
       H   -12.07633   15.35363   10.90587
       O   -12.47194   16.06616   10.39854
      H1   -12.81732   16.63350   11.10260
       H   -10.29903   15.89663    7.70874
       O   -10.05086   15.36786    6.93902
      H1    -9.50892   15.94135    6.37369
       H   -17.87733   16.87619    2.59860
       O   -17.06688   16.43075    2.81242
      H1   -16.77505   16.06353    1.93689
       H   -10.12309   13.92641    3.44190
       O    -9.36277   14.57800    3.40209
      H1    -9.62979   15.05520    2.59621
       H   -11.29569   11.98223    3.24168
       O   -11.29449   12.51813    4.04397
      H1   -10.78697   11.96553    4.71302
       H   -19.01757   14.06796    8.28255
       O   -18.39495   14.26905    7.55808
      H1   -18.85497   14.91348    6.95841
       H   -11.34309   18.25510    6.86081
       O   -10.84257   19.09221    6.92164
      H1   -10.88259   19.58225    7.76796
       H   -15.53291   15.51050   12.28602
       O   -15.45035   15.40583   11.26987
      H1   -15.43402   16.36616   11.04309
       H   -15.87966   17.72897    9.64616
       O   -15.20138   17.78949   10.29650
      H1   -14.40533   17.63552    9.78781
       H   -15.06304   11.89768    5.80226
       O   -15.63393   12.66470    5.92098
      H1   -16.53393   12.36439    5.91031
       H   -12.83821    9.71658    4.53945
       O   -12.59497    9.17452    3.76379
      H1   -12.14662    9.77824    3.14520
       H   -17.37499   15.16528    8.81209
       O   -17.36296   15.91749    9.40874
      H1   -16.67892   15.83941   10.14316
       H   -13.00913   11.94473    5.54919
       O   -13.45980   11.07914    5.74074
      H1   -13.41245   11.07726    6.72858
       H   -18.77739   16.58905    5.49257
       O   -19.43413   15.81726    5.59759
      H1   -20.15170   16.13250    6.20296
       H   -12.18223   13.41956    8.12955
       O   -11.62568   13.13416    7.38240
      H1   -11.10465   13.89339    7.16182
       H   -16.68902   12.86943    9.64179
       O   -15.94974   12.62685    9.09846
      H1   -16.15341   12.77264    8.14531

