90
frame 0 | Written by MDAnalysis XYZWriter (release 2.4.3)
       H    -5.20305  -13.11162  -15.19382
       O    -5.75943  -13.31423  -14.45930
      H1    -6.66636  -13.36218  -14.85806
       H   -11.78536  -15.32789  -13.08879
       O   -11.62585  -15.44152  -14.09642
      H1   -12.18418  -16.22978  -14.22614
       H    -9.02446  -13.09917  -14.46935
       O    -8.45022  -13.46220  -15.17165
      H1    -8.21632  -12.69277  -15.69952
       H   -10.25477   -9.81760  -16.40597
       O    -9.67877   -9.42219  -15.78756
      H1    -9.30045  -10.25798  -15.35428
       H   -12.34711  -11.07150  -18.80940
       O   -12.87453  -11.36713  -19.56989
      H1   -13.60964  -10.71784  -19.51936
       H   -13.71272  -19.24883  -16.90191
       O   -14.12928  -18.33649  -16.80920
      H1   -13.37334  -17.73426  -16.79320
       H   -10.77982  -12.09717  -17.35960
       O   -10.68173  -11.23077  -17.83777
      H1   -10.07751  -11.48304  -18.55081
       H   -13.97123  -17.68674  -14.43575
       O   -13.25735  -17.65531  -13.79977
      H1   -13.66889  -17.54388  -12.94137
       H    -8.91312  -17.38617  -18.22029
       O    -8.16665  -17.05530  -17.69750
      H1    -8.31499  -16.05803  -17.86351
       H   -16.00493  -13.65975  -13.27278
       O   -15.61407  -13.39630  -12.41119
      H1   -14.85300  -14.06737  -12.39224
       H   -17.89468  -13.26030  -15.29889
       O   -17.13315  -13.71609  -14.95695
      H1   -16.90263  -14.32382  -15.68826
       H   -16.01397  -12.12714  -15.27548
       O   -15.35443  -11.41334  -15.41131
      H1   -15.55957  -10.76928  -14.72964
       H    -9.65700  -12.18080  -13.01567
       O   -10.37684  -12.63764  -13.51147
      H1   -11.08108  -11.96445  -13.55149
       H    -9.67571  -13.93288  -16.61592
       O   -10.14404  -13.88610  -17.51552
      H1   -10.98231  -14.34149  -17.31925
       H   -12.53040  -15.28112  -16.31666
       O   -12.70529  -15.69569  -17.17473
      H1   -13.56016  -15.24371  -17.42392
       H   -11.77987   -8.82856  -13.83852
       O   -11.64863   -8.07072  -14.45812
      H1   -10.92688   -8.46501  -14.94350
       H    -7.79677  -15.39598  -11.77819
       O    -7.98207  -14.44261  -11.64999
      H1    -7.85380  -14.40108  -10.68143
       H   -12.92334  -14.14750  -11.21019
       O   -13.12961  -14.90158  -11.81135
      H1   -13.32190  -15.62774  -11.14549
       H   -10.21355  -19.25559  -16.90273
       O   -10.44172  -19.60969  -16.05601
      H1   -10.41383  -18.89424  -15.44868
       H   -13.34283   -8.83909  -18.72294
       O   -14.22034   -9.16206  -18.48986
      H1   -14.09435   -9.24279  -17.52838
       H    -6.72861  -10.73122  -16.91055
       O    -7.50363  -11.29136  -17.05246
      H1    -7.83468  -10.94258  -17.91125
       H    -7.95826   -9.26531  -18.69079
       O    -8.21613   -9.86274  -19.46695
      H1    -7.43635  -10.45883  -19.56095
       H   -13.20502  -12.80000  -15.37850
       O   -12.33010  -13.13406  -15.64280
      H1   -12.00259  -13.52877  -14.81534
       H    -9.47068  -17.98711  -13.72437
       O    -9.62098  -18.56540  -12.94766
      H1    -9.93211  -17.96648  -12.25170
       H   -14.10913  -12.94370  -18.91343
       O   -14.66389  -13.70796  -18.92612
      H1   -15.34350  -13.51951  -18.30717
       H    -5.94167  -17.12047  -17.45249
       O    -5.25853  -17.07271  -18.13683
      H1    -4.51674  -16.56303  -17.71880
       H   -11.25919  -16.65742  -18.53044
       O   -10.62114  -16.70866  -19.27369
      H1   -11.25850  -16.74719  -19.98320
       H   -16.35129  -16.40630  -17.14485
       O   -15.90376  -15.64866  -16.71388
      H1   -15.15237  -16.18409  -16.35886
       H   -14.84623  -18.39853  -18.41970
       O   -15.49640  -18.74693  -19.08575
      H1   -15.28275  -18.26054  -19.87659
       H    -8.82980  -16.68098  -15.81187
       O    -9.66000  -16.92625  -15.32269
      H1    -9.96410  -16.06775  -14.82199

