90
frame 1 | Written by MDAnalysis XYZWriter (release 2.4.3)
       H    -9.70984  -19.45596   13.98150
       O    -9.96015  -18.96626   14.78114
      H1    -9.58157  -19.49591   15.56037
       H    -8.18055  -11.83184   14.18905
       O    -7.65990  -11.00987   14.35685
      H1    -7.08165  -10.91214   13.60418
       H   -12.09316  -16.52430   17.50310
       O   -12.50904  -16.96382   18.25321
      H1   -13.16523  -16.33234   18.54135
       H   -14.07904  -12.39371   16.53649
       O   -13.72941  -12.24672   15.70284
      H1   -13.93140  -13.09958   15.25237
       H    -5.91977  -14.54901   12.65408
       O    -5.50987  -15.04550   13.40839
      H1    -5.34791  -14.30377   14.02334
       H   -14.60947  -13.77935   18.61059
       O   -14.47263  -14.41447   17.92650
      H1   -13.60262  -14.24188   17.51999
       H   -13.12291  -20.07976   18.96183
       O   -12.17021  -19.78387   19.02497
      H1   -12.30066  -18.88157   18.66759
       H   -11.04802  -12.19276   12.20950
       O   -11.00379  -12.51861   11.29465
      H1   -11.85367  -12.89540   11.18229
       H   -14.51877  -20.03462   13.12936
       O   -15.32305  -19.62522   13.53333
      H1   -15.14073  -18.69325   13.20876
       H   -10.35787  -17.66402    9.46689
       O   -10.99950  -17.58198    8.74153
      H1   -11.44010  -16.73034    8.83287
       H   -11.44657  -19.17007    9.98666
       O   -11.77773  -19.18628   10.91653
      H1   -11.50598  -18.29002   11.29165
       H    -8.01774  -15.75958   15.92528
       O    -8.47756  -15.02026   16.39450
      H1    -8.75998  -14.42314   15.69488
       H   -14.50400  -17.25227   11.70330
       O   -14.72253  -16.76987   12.48802
      H1   -15.65113  -16.51502   12.45397
       H   -11.34553  -15.46841   14.60641
       O   -11.34162  -14.47490   14.50023
      H1   -12.29498  -14.29253   14.49493
       H   -12.92011  -14.96575   11.28754
       O   -12.78712  -14.48475   10.45565
      H1   -13.71439  -14.52769   10.03555
       H   -10.18703  -17.54741   13.05280
       O   -10.82548  -17.00218   12.59237
      H1   -10.19474  -16.53677   12.08711
       H   -16.87997  -17.04903   15.99884
       O   -17.61635  -17.06671   15.37574
      H1   -17.85626  -18.02933   15.44906
       H   -11.34389  -14.21713   16.37500
       O   -11.57243  -14.09875   17.34275
      H1   -11.07040  -13.30956   17.62302
       H    -8.79706  -13.97661   19.69860
       O    -8.51473  -13.43749   18.94918
      H1    -8.87979  -13.91962   18.16380
       H    -4.48408  -18.34544   15.32199
       O    -4.80835  -18.56547   16.16934
      H1    -4.22391  -19.28276   16.51686
       H   -14.86179  -17.15275   17.62581
       O   -15.34940  -17.97740   17.81872
      H1   -14.96377  -18.62500   17.21875
       H    -9.92582  -16.50257   16.29455
       O   -10.88826  -16.82788   16.20006
      H1   -10.67612  -17.51799   15.57321
       H   -14.31640  -15.44301   13.64219
       O   -14.15822  -14.69802   14.23249
      H1   -14.82825  -14.09826   13.92427
       H    -9.99237  -13.29510   13.93527
       O    -8.99437  -13.32446   13.95736
      H1    -8.80223  -13.75014   13.05930
       H   -10.11752  -14.14993   11.10929
       O    -9.50255  -14.91348   11.33336
      H1    -8.60282  -14.57603   11.17244
       H   -14.55137  -19.45319   10.26208
       O   -14.42819  -18.50666   10.35261
      H1   -13.48257  -18.50643   10.24234
       H    -8.38422  -18.17974   15.11794
       O    -7.77528  -17.62274   15.57580
      H1    -7.01108  -17.59484   15.00258
       H    -9.97567  -11.99967   18.65613
       O   -10.62947  -11.52985   18.13392
      H1   -11.42879  -11.64196   18.64470
       H    -5.71208  -16.91827   12.73922
       O    -5.35783  -17.80279   12.60340
      H1    -6.09297  -18.30279   12.27210
       H    -7.17445  -15.46618   17.60629
       O    -6.31711  -15.41376   18.07314
      H1    -6.47116  -16.06551   18.84752

