90
frame 0 | Written by MDAnalysis XYZWriter (release 2.4.3)
       H     6.51710   13.27345   13.18577
       O     6.24050   12.61813   13.82809
      H1     7.11426   12.22297   14.00660
       H     5.55583    8.66749   14.77563
       O     5.63453    7.96194   15.43357
      H1     5.54419    7.12344   14.94698
       H    10.24802   14.51707   14.05314
       O     9.43695   14.13556   13.63104
      H1     8.80554   14.56125   14.25599
       H    10.54473   10.51309   11.81305
       O     9.73330   10.35289   12.33996
      H1    10.02467    9.49345   12.71913
       H     2.42900    9.63162   13.75483
       O     3.16504   10.13609   13.39699
      H1     3.34536   10.80387   14.03839
       H     2.85710   13.19841   13.43937
       O     3.01722   14.10282   13.14265
      H1     3.11230   14.06110   12.16617
       H     3.16644    7.99045   10.10936
       O     3.49649    8.69827   10.69629
      H1     3.19692    8.30524   11.53473
       H     9.13263   11.26403   13.68309
       O     8.78258   11.82120   14.42465
      H1     9.13029   12.67338   14.08659
       H     7.32529    8.41903   13.35752
       O     7.92422    7.67887   13.15672
      H1     8.51266    7.78485   13.88524
       H     8.44944   12.55326    6.54987
       O     9.02758   12.87009    5.87823
      H1     9.59914   13.47670    6.43466
       H     6.34980    8.64475    9.25904
       O     5.69946    9.23064    8.91218
      H1     4.94460    9.32120    9.61671
       H     2.83399   12.35863    7.78476
       O     2.01896   11.85877    7.90721
      H1     1.90678   11.59130    6.92761
       H     8.91325   13.54998    9.71771
       O     9.22007   14.50598    9.86593
      H1     8.41534   15.06379    9.82677
       H     6.62917   15.98890    7.60046
       O     7.06799   15.20511    7.93131
      H1     6.49779   14.52738    7.55553
       H     5.21194   12.80134    7.71543
       O     4.31967   13.13610    7.77036
      H1     4.14110   13.55730    6.87952
       H    10.21026   11.94449    9.65891
       O     9.25960   12.04521    9.37075
      H1     8.84290   11.87764   10.25181
       H     7.87033   10.04683   15.29788
       O     8.08051    9.14881   15.72784
      H1     7.48201    8.44557   15.46112
       H     1.73348   13.18648   10.43245
       O     1.73446   14.13152   10.42617
      H1     1.32925   14.37924    9.53692
       H     6.70246   11.10988    7.64949
       O     6.72532   11.93056    7.12014
      H1     6.62183   11.59478    6.25662
       H     4.78232    7.80835    5.90806
       O     5.05070    8.75426    5.87055
      H1     5.39598    8.97950    6.74451
       H     4.81845    7.87306    8.24925
       O     3.92503    7.53562    8.06844
      H1     4.18412    6.59819    7.98975
       H     5.97077   11.78856   10.67017
       O     6.90347   11.88794   10.78508
      H1     7.09993   11.86086    9.81065
       H     4.46503   14.15944    9.31174
       O     4.22728   14.38372   10.24841
      H1     3.29217   14.36362   10.13733
       H     7.92412    6.74498   10.54735
       O     7.89858    7.69005   10.29653
      H1     7.79175    8.17271   11.10646
       H     8.03917    7.79855    7.50184
       O     7.69883    6.97527    7.13544
      H1     7.56479    7.25710    6.23939
       H     6.04328   14.50618   11.29954
       O     6.65324   14.92922   11.87830
      H1     7.56511   14.65226   11.60318
       H     4.64775   16.62174   11.29448
       O     4.47047   16.85699   12.21133
      H1     4.53451   15.94123   12.52186
       H     4.97495    9.38547   12.82586
       O     5.86816    9.58895   13.11116
      H1     5.72647   10.48901   13.45702
       H     9.39989    9.71974    6.62180
       O     8.84606    9.59490    7.46942
      H1     9.28871   10.27813    7.96583
       H     2.47854   10.25051   10.29713
       O     1.99684   11.08568   10.45924
      H1     2.19362   11.43457    9.59874

