90
frame 1 | Written by MDAnalysis XYZWriter (release 2.4.3)
       H   -16.95909  -17.67298    7.01063
       O   -17.36759  -17.92551    6.14894
      H1   -17.87292  -18.66939    6.44837
       H    -9.31404  -11.93948    8.58908
       O    -8.60186  -12.55695    8.33759
      H1    -8.79336  -12.66558    7.36894
       H   -14.25423  -16.81127    5.62318
       O   -14.26732  -17.39465    6.36392
      H1   -13.58495  -17.02360    6.91531
       H   -10.34255  -16.09130    4.42347
       O    -9.72535  -15.35195    4.27496
      H1   -10.21950  -14.70123    3.77062
       H   -12.44877  -15.49992    6.15191
       O   -12.47448  -15.40050    7.13125
      H1   -12.17653  -14.47471    7.24936
       H   -15.04449  -18.53985    3.45603
       O   -14.18323  -18.87122    3.82357
      H1   -14.38711  -19.23584    4.69595
       H   -11.04802  -12.19276   12.20950
       O   -11.00379  -12.51861   11.29465
      H1   -11.85367  -12.89540   11.18229
       H   -16.09463  -14.48878    9.25459
       O   -15.22177  -14.63524    8.96837
      H1   -15.16774  -15.59613    8.86201
       H   -12.47870  -16.22054    3.65034
       O   -12.20743  -16.52991    4.52791
      H1   -12.46811  -17.48383    4.45002
       H   -10.35787  -17.66402    9.46689
       O   -10.99950  -17.58198    8.74153
      H1   -11.44010  -16.73034    8.83287
       H    -8.04095  -15.51175    7.41210
       O    -7.52487  -16.22548    7.02633
      H1    -8.21054  -16.83189    6.60951
       H   -17.20153  -17.57366    9.38041
       O   -16.42692  -17.51763    8.74633
      H1   -15.88304  -18.08085    9.25592
       H   -15.01132  -11.60164    8.72744
       O   -14.14299  -11.95969    8.58863
      H1   -14.23349  -12.91552    8.47354
       H   -11.44657  -19.17007    9.98666
       O   -11.77773  -19.18628   10.91653
      H1   -11.50598  -18.29002   11.29165
       H   -14.50400  -17.25227   11.70330
       O   -14.72253  -16.76987   12.48802
      H1   -15.65113  -16.51502   12.45397
       H   -10.35250  -10.81458    3.69798
       O   -10.68145  -11.45217    4.34698
      H1    -9.95860  -12.12500    4.25492
       H   -12.92011  -14.96575   11.28754
       O   -12.78712  -14.48475   10.45565
      H1   -13.71439  -14.52769   10.03555
       H    -8.80468  -19.07011    7.70562
       O    -8.38293  -19.88259    8.02737
      H1    -7.79582  -19.50103    8.71894
       H   -14.50005  -14.49087    3.57410
       O   -14.86621  -15.20206    4.13013
      H1   -15.16034  -14.65127    4.83636
       H   -10.31446  -17.80068    7.01577
       O    -9.63436  -17.80810    6.36122
      H1    -9.93399  -18.63718    5.90753
       H   -11.46226  -12.10560    5.92558
       O   -11.90714  -12.30303    6.76364
      H1   -12.79573  -12.00067    6.66501
       H    -8.04129  -13.11357    5.51231
       O    -8.87927  -13.41527    5.89124
      H1    -9.07866  -14.19716    5.31008
       H   -15.44130  -14.19697    7.13965
       O   -15.83789  -13.87621    6.29938
      H1   -15.32870  -13.02694    6.15249
       H   -16.23746  -11.62006    4.53724
       O   -15.56043  -11.32136    5.09858
      H1   -14.85278  -11.25357    4.43800
       H   -10.11752  -14.14993   11.10929
       O    -9.50255  -14.91348   11.33336
      H1    -8.60282  -14.57603   11.17244
       H   -12.47425  -11.43426    3.70180
       O   -13.36615  -11.77285    3.40957
      H1   -13.56506  -10.91310    2.91958
       H   -14.55137  -19.45319   10.26208
       O   -14.42819  -18.50666   10.35261
      H1   -13.48257  -18.50643   10.24234
       H   -12.05586  -10.45135    7.49025
       O   -12.13150   -9.49216    7.65029
      H1   -12.64081   -9.53194    8.42648
       H   -15.76224  -16.69109    3.76453
       O   -16.37834  -17.38275    3.43677
      H1   -16.65566  -17.84877    4.24220
       H   -12.25880  -14.09013    1.46788
       O   -13.04446  -14.21967    2.00816
      H1   -13.15559  -13.29951    2.40924

