90
frame 1 | Written by MDAnalysis XYZWriter (release 2.4.3)
       H   -13.67962   -0.08652  -10.61922
       O   -13.98246    0.76812  -10.28684
      H1   -13.62840    1.35330  -11.04077
       H   -12.89575    3.56423  -11.31335
       O   -13.11072    2.83545  -12.00126
      H1   -13.78269    3.33820  -12.52489
       H   -15.44610    3.40354  -13.00558
       O   -15.76354    2.50098  -13.04347
      H1   -16.11451    2.32976  -12.11682
       H   -15.47280   -0.54032  -17.70836
       O   -15.74268   -0.23085  -18.61604
      H1   -16.72853   -0.19829  -18.46820
       H   -16.58787   -3.41171  -15.04303
       O   -15.72228   -3.41877  -15.43279
      H1   -15.84347   -3.84291  -16.27823
       H   -11.45942   -1.15922  -15.40811
       O   -11.87134   -0.80947  -16.23905
      H1   -12.68044   -0.34136  -16.03924
       H   -17.89083    3.93422  -17.91839
       O   -18.37615    3.15252  -17.67842
      H1   -19.01818    3.42780  -17.00900
       H   -18.83058   -2.73732  -13.80320
       O   -18.01915   -3.26144  -13.54140
      H1   -17.44081   -2.51191  -13.29628
       H   -14.87103   -3.22078  -18.43733
       O   -15.48594   -3.92551  -18.21357
      H1   -15.06854   -4.70161  -18.55445
       H   -16.16901    5.64753  -14.06769
       O   -16.76847    6.27877  -14.54075
      H1   -17.59073    5.87384  -14.33946
       H   -13.72163    5.24464  -13.61683
       O   -14.54551    4.76778  -13.81780
      H1   -14.37063    4.52406  -14.73638
       H   -18.00239    2.90638  -10.54895
       O   -17.47011    2.15618  -10.85227
      H1   -17.41608    1.71392   -9.95717
       H   -16.69341   -0.81999  -12.39004
       O   -16.54382   -1.02549  -13.36096
      H1   -16.93112   -0.25321  -13.83935
       H   -17.18077    7.26027  -17.38805
       O   -17.58733    6.38512  -17.09619
      H1   -17.12538    6.35476  -16.27226
       H   -12.30444   -1.82454  -13.77583
       O   -12.43006   -1.02950  -13.20850
      H1   -11.45560   -0.79996  -13.11358
       H   -18.62531   -0.28114  -19.31145
       O   -18.58884   -0.32846  -18.36009
      H1   -19.09481   -1.08721  -18.26530
       H   -16.98192    1.37206  -15.82092
       O   -17.31100    1.09208  -14.97497
      H1   -16.80181    1.58583  -14.33572
       H   -12.69235    3.76295  -18.80345
       O   -12.91748    4.72785  -18.97071
      H1   -13.79282    4.85901  -18.50555
       H   -12.82465    3.41015  -16.00056
       O   -13.68085    3.79507  -16.30812
      H1   -14.18638    2.97809  -16.52379
       H   -10.41603    0.56053  -16.79272
       O   -10.09399    1.44692  -17.12199
      H1    -9.12334    1.25471  -17.13836
       H   -12.10110    6.24068  -15.84277
       O   -12.15900    6.10927  -14.88762
      H1   -11.62617    5.28664  -14.82554
       H   -16.84205    2.55666  -17.32405
       O   -15.99895    2.26195  -16.95318
      H1   -15.71934    1.60181  -17.60169
       H   -13.31160    0.50074  -13.98548
       O   -13.60732    1.33440  -14.42152
      H1   -14.27342    1.72534  -13.79969
       H   -11.16509    5.92821  -18.33690
       O   -10.62080    6.04516  -17.50738
      H1   -10.47858    6.96879  -17.65652
       H   -10.95009    3.12562  -13.02252
       O   -10.26243    3.46728  -12.49885
      H1   -10.06051    2.70102  -11.88964
       H   -12.29235    1.54362  -19.45684
       O   -11.65093    2.23754  -19.13194
      H1   -11.28188    1.76906  -18.32308
       H   -16.05056    9.56743  -14.56600
       O   -15.83891    8.85300  -15.14535
      H1   -16.23136    8.09502  -14.63471
       H   -11.90502    2.18279  -14.80921
       O   -11.27063    2.81945  -15.07005
      H1   -10.75200    2.32985  -15.75084
       H   -16.48112    5.66075  -18.27482
       O   -16.08178    5.36554  -19.05963
      H1   -16.29758    6.06464  -19.66259
       H   -14.91532   -1.63499  -15.93862
       O   -14.82036   -0.67890  -16.04747
      H1   -15.32429   -0.47675  -15.21773

