90
frame 1 | Written by MDAnalysis XYZWriter (release 2.4.3)
       H    15.00040   10.05431   18.15293
       O    15.42342   10.63947   18.71811
      H1    16.11109   11.09599   18.16265
       H    14.48751    1.12186   12.71901
       O    14.63263    0.24688   13.13458
      H1    15.28820    0.42565   13.86024
       H    14.53312    6.78975   11.93812
       O    14.59933    5.96698   11.48168
      H1    13.83177    5.52905   11.83622
       H    13.57369    1.07886   16.03213
       O    12.66502    1.12052   15.62525
      H1    12.13737    1.24602   16.44577
       H    10.58730    7.50403   14.49755
       O    10.04998    7.81429   13.69526
      H1    10.70119    7.55645   13.02475
       H    18.02408    6.01645   13.00388
       O    17.38830    6.21076   13.68664
      H1    17.27448    5.38489   14.16124
       H    15.09431    3.35937   17.41048
       O    15.61901    4.14214   17.48594
      H1    15.08326    4.75601   16.96065
       H    13.87135    8.34810   17.75912
       O    14.40011    8.80589   17.15387
      H1    13.79497    9.36386   16.69472
       H    15.86731    7.52421   15.79749
       O    15.74618    7.80016   14.86313
      H1    16.41647    7.10693   14.49146
       H    13.85027    6.97517   16.19796
       O    13.94742    6.05612   16.49673
      H1    13.28709    5.99921   17.16995
       H    18.03874    6.17447   17.77359
       O    18.71813    5.49358   17.71153
      H1    18.33249    4.77535   18.21239
       H    20.04382    6.85872   14.67038
       O    19.62360    7.72645   14.63461
      H1    18.74826    7.46992   14.35026
       H    14.32992    8.26805   13.58529
       O    13.65273    7.86834   13.04534
      H1    13.33920    8.55663   12.47744
       H    17.27002    0.91757   16.60291
       O    17.47542    0.70290   17.51303
      H1    18.33115    0.26355   17.56540
       H    14.00568    2.79949   12.79679
       O    14.02546    2.56420   11.81449
      H1    14.81065    2.97479   11.50920
       H    11.61081    0.38225   13.99851
       O    11.93904   -0.20535   13.30377
      H1    12.88196   -0.33938   13.46920
       H    15.38183    1.11481   17.65950
       O    14.53057    1.56468   17.80882
      H1    14.34273    1.25459   18.69687
       H    13.63037   11.62041   15.80728
       O    13.15961   10.77189   15.71672
      H1    12.35414   11.07316   16.21275
       H    17.07474    2.27795   14.71010
       O    16.93594    1.29994   14.75931
      H1    17.28705    0.93185   13.95474
       H    16.15016    9.98991   14.62247
       O    16.22968   10.97870   14.64742
      H1    17.11324   11.13662   14.32152
       H    10.05019    4.14755   15.15355
       O    10.38911    4.98791   15.44119
      H1     9.54848    5.41735   15.57061
       H    11.33650    5.24210   18.64615
       O    11.58611    4.62315   17.98628
      H1    11.20182    4.97246   17.18502
       H    12.71075   -2.61919   15.25624
       O    13.34391   -1.91830   15.48649
      H1    13.04981   -1.04935   15.19260
       H    14.11619    4.37963   13.59103
       O    14.61485    3.68205   14.14891
      H1    13.93711    3.49624   14.82585
       H    18.79980    5.56601   10.97302
       O    17.87218    5.91141   10.86433
      H1    17.31823    5.10918   10.88401
       H    13.36818   -1.74359   17.33584
       O    13.80215   -1.56462   18.18022
      H1    14.63237   -2.02424   18.11184
       H    19.04348    3.35260   12.99765
       O    19.01943    3.09787   12.06664
      H1    18.87618    2.13120   12.13503
       H     9.52025    1.59203   18.38829
       O     9.32522    0.90658   17.74670
      H1     9.49940    0.04395   18.24339
       H    10.41398    8.15708   18.32876
       O     9.95943    8.64337   17.64073
      H1     9.09477    8.21030   17.46232
       H    16.22740    3.68863   14.57175
       O    17.14813    3.91081   14.79757
      H1    17.03347    3.98228   15.74056

