90
frame 1 | Written by MDAnalysis XYZWriter (release 2.4.3)
       H   -18.58093   -7.58335  -13.35515
       O   -18.14145   -6.74014  -13.46055
      H1   -17.44546   -7.01378  -14.16122
       H   -16.58787   -3.41171  -15.04303
       O   -15.72228   -3.41877  -15.43279
      H1   -15.84347   -3.84291  -16.27823
       H   -11.39349   -8.56040  -11.66827
       O   -11.60474   -9.26809  -12.28163
      H1   -12.46867   -9.49039  -11.95145
       H   -19.07170   -5.80683  -15.57098
       O   -19.51890   -5.83552  -16.43501
      H1   -18.72184   -6.10532  -16.95053
       H   -18.83058   -2.73732  -13.80320
       O   -18.01915   -3.26144  -13.54140
      H1   -17.44081   -2.51191  -13.29628
       H   -11.09272   -6.47511  -12.47072
       O   -11.60044   -6.52460  -11.61187
      H1   -12.57099   -6.60972  -11.88471
       H   -14.87103   -3.22078  -18.43733
       O   -15.48594   -3.92551  -18.21357
      H1   -15.06854   -4.70161  -18.55445
       H   -16.54779   -7.05097   -9.34844
       O   -16.43834   -7.52242  -10.17491
      H1   -16.45187   -8.50508   -9.98142
       H   -17.08048   -7.76923  -18.16064
       O   -17.24699   -6.87464  -17.82560
      H1   -16.76510   -6.90291  -16.93664
       H   -16.08774  -12.56313  -12.96490
       O   -15.66649  -12.97442  -12.15503
      H1   -14.74824  -13.21146  -12.41044
       H   -18.04858   -3.77729  -11.74144
       O   -18.02847   -3.70514  -10.76207
      H1   -18.00658   -4.69301  -10.62310
       H   -16.70953  -13.14632  -15.61523
       O   -15.80389  -13.14079  -15.11373
      H1   -15.58801  -14.02858  -15.39644
       H   -14.92100  -11.73721  -15.82638
       O   -14.01175  -11.36456  -15.92846
      H1   -13.99542  -10.78954  -15.15157
       H   -16.34833   -9.61480  -12.73465
       O   -15.49871   -9.11094  -12.89765
      H1   -15.49862   -8.35933  -12.23087
       H   -15.58152  -10.73426   -9.76828
       O   -15.97078  -10.01078   -9.24561
      H1   -15.13426   -9.72351   -8.83289
       H   -14.56174  -11.66188  -11.41815
       O   -14.03105  -10.89407  -11.37024
      H1   -14.64246  -10.16245  -11.71802
       H   -12.69583   -8.72258  -14.08083
       O   -12.57546   -8.48024  -15.02092
      H1   -11.59844   -8.69145  -15.12910
       H   -17.08769  -10.23203  -18.77886
       O   -16.71239   -9.38564  -18.69496
      H1   -15.78554   -9.57697  -18.45182
       H   -14.95078   -3.48066  -12.15722
       O   -15.13260   -4.31033  -12.64870
      H1   -15.29779   -3.92759  -13.49474
       H   -13.50767   -9.29724  -18.42385
       O   -14.28274   -9.83788  -18.16330
      H1   -13.97228  -10.18780  -17.33049
       H   -18.47545  -10.68398  -13.18062
       O   -18.00063  -10.30136  -12.45347
      H1   -18.42428  -10.78110  -11.72880
       H   -17.80595   -9.64981  -16.22325
       O   -18.49537  -10.32016  -16.43213
      H1   -18.07850  -11.03403  -16.94738
       H   -11.40498   -3.50908  -12.73840
       O   -11.61392   -3.40324  -13.67285
      H1   -12.07375   -4.19805  -13.99111
       H   -15.28044   -6.78280  -15.24623
       O   -15.99520   -7.42669  -15.10757
      H1   -15.70612   -7.90047  -14.32636
       H   -15.52229   -6.53132  -18.58909
       O   -14.78326   -6.20287  -19.10411
      H1   -14.08982   -6.73967  -18.87593
       H   -13.30107   -5.48818  -16.17185
       O   -13.74778   -6.04869  -15.45016
      H1   -13.05926   -6.72461  -15.33091
       H   -14.20096   -6.17169   -9.86961
       O   -13.88156   -5.69355   -9.06094
      H1   -14.09642   -6.42931   -8.45168
       H   -15.16171   -6.96885  -11.08949
       O   -14.39404   -6.77923  -11.64915
      H1   -14.72974   -5.96528  -12.07704
       H   -12.56534   -7.70399  -16.76325
       O   -12.56419   -7.47942  -17.66802
      H1   -11.65703   -7.09854  -17.85771
       H   -19.47942   -6.58101  -11.00502
       O   -18.88292   -6.43629  -10.26776
      H1   -18.04879   -6.74263  -10.58209

