90
frame 0 | Written by MDAnalysis XYZWriter (release 2.4.3)
       H     4.38885   -1.11861    6.49226
       O     4.45523   -1.67097    5.67524
      H1     3.61063   -2.18716    5.58331
       H     6.84138   -4.49766    1.80135
       O     6.50969   -4.01669    1.03554
      H1     7.13247   -3.30416    0.78140
       H     6.06614    1.13472    2.02690
       O     7.00986    0.94264    2.08500
      H1     7.04328    0.18943    2.73053
       H     4.07890    0.13038    8.68855
       O     4.33021    0.13253    7.72778
      H1     4.39429    1.08608    7.68329
       H    12.29786   -3.06689    0.63520
       O    11.35960   -3.26958    0.82303
      H1    10.89349   -2.48507    0.43970
       H     1.45296    0.77406    4.21867
       O     2.15123    1.28196    4.56768
      H1     2.97921    0.85169    4.23123
       H    10.68865   -1.75063    6.04047
       O    10.41561   -1.64338    6.92298
      H1     9.54940   -1.28354    6.73898
       H     5.08058   -3.91944    2.35651
       O     4.27223   -3.46511    2.65217
      H1     3.75301   -4.26644    2.89862
       H     8.15601   -5.18151    2.77322
       O     7.25446   -5.28676    3.21041
      H1     7.01765   -6.22002    2.97644
       H     5.95251   -2.96804    5.37844
       O     6.85472   -3.26080    5.44367
      H1     6.93111   -3.92695    4.69132
       H     5.18371   -5.84958   -0.80994
       O     5.57937   -6.29408   -0.03742
      H1     5.96367   -5.46872    0.34990
       H     9.96160   -0.56671    2.12659
       O    10.24679   -0.61431    3.03842
      H1    11.21004   -0.41530    2.95358
       H    10.47848    2.84276    3.22333
       O    10.52830    2.12051    2.57932
      H1    10.44002    1.26480    3.11822
       H     5.43714    1.79599    4.83707
       O     5.60935    2.21723    5.68665
      H1     6.46486    1.91194    6.03054
       H    11.40006    0.00367    0.61668
       O    10.89593   -0.68001    0.18042
      H1    11.26036   -0.75314   -0.74143
       H     8.14625   -1.47934   -0.52718
       O     8.50515   -2.32002   -0.17568
      H1     8.85374   -2.71052   -0.98000
       H    11.08221   -2.18186    9.74864
       O    11.10939   -2.89703    9.08879
      H1    10.95416   -2.48508    8.25939
       H     1.12170   -0.87618    6.87168
       O     1.72467   -1.10332    6.16595
      H1     2.16964   -0.23643    6.02463
       H     7.16470   -3.63508    7.48239
       O     7.52384   -4.29632    8.14285
      H1     8.45448   -4.15853    8.16402
       H     3.51411   -2.12828    1.94172
       O     3.13907   -1.30051    1.59211
      H1     2.16079   -1.32724    1.76580
       H     9.69653    3.80019    5.73678
       O     9.78141    2.92989    6.12796
      H1    10.27879    3.15564    6.93101
       H     9.98727   -4.49840    1.14062
       O     9.32225   -5.17516    1.39121
      H1     8.66858   -4.83842    0.74062
       H    12.48155   -3.16347    4.47840
       O    12.12588   -3.46610    5.37962
      H1    12.95597   -3.16798    5.88169
       H     7.16407   -1.61210    4.32972
       O     7.47319   -0.81790    3.91035
      H1     8.42931   -1.01832    3.83544
       H     7.88853    0.85006    0.42276
       O     7.96471    0.88493   -0.55921
      H1     8.84962    0.52243   -0.52699
       H     6.87970   -6.66507    6.49096
       O     7.57529   -7.18135    6.08675
      H1     7.88959   -6.68281    5.34775
       H     4.76094   -2.71791    8.58834
       O     3.98121   -3.24824    8.73322
      H1     4.29123   -3.82137    9.45460
       H    10.35641   -6.82844    3.71937
       O     9.92883   -6.26225    4.40461
      H1    10.23702   -5.33861    4.14908
       H     4.08756   -0.20574    2.74846
       O     4.51625    0.21743    3.50443
      H1     4.57084   -0.61042    4.13249
       H     8.92945    1.14237    6.33745
       O     8.24197    0.44530    6.26996
      H1     7.95380    0.38740    5.30904

