90
frame 0 | Written by MDAnalysis XYZWriter (release 2.4.3)
       H   -15.11438    0.05648   -9.85588
       O   -14.94498    0.99787   -9.66795
      H1   -14.41904    1.21507  -10.47677
       H   -17.44481    5.51037   -5.07341
       O   -17.25433    6.05378   -4.27762
      H1   -16.29670    5.91940   -4.09467
       H   -13.37067    3.24689  -10.93823
       O   -13.38411    2.35893  -11.31877
      H1   -14.23231    2.47707  -11.78461
       H   -13.32260    4.67752   -7.44458
       O   -13.58158    5.61324   -7.36678
      H1   -13.98226    5.86561   -8.21040
       H   -17.59228    1.46973   -8.38412
       O   -18.40767    1.02252   -8.61165
      H1   -18.15285    0.08006   -8.61249
       H   -14.60369    2.68756   -6.78685
       O   -13.85300    2.92090   -7.35636
      H1   -14.20907    2.72042   -8.23970
       H   -15.74914    3.32841  -12.99371
       O   -15.66246    2.42574  -12.67867
      H1   -16.45817    2.27390  -12.10237
       H   -13.92158   -4.80031   -7.64239
       O   -14.27409   -4.50443   -6.82065
      H1   -14.73537   -3.70672   -7.18246
       H   -18.14146    2.85734  -10.85763
       O   -17.86950    1.99456  -11.12006
      H1   -18.11137    1.49951  -10.32044
       H   -16.71432   -0.06985  -12.43541
       O   -16.64957   -0.33983  -13.35763
      H1   -16.81724    0.43942  -13.87341
       H   -15.99595    7.29630   -9.20299
       O   -16.49280    6.60746   -8.70303
      H1   -17.44124    6.76124   -9.04056
       H   -14.90484   -0.05624   -5.82217
       O   -14.87752    0.02810   -6.79798
      H1   -14.02808   -0.43529   -7.06732
       H   -17.50188   -2.40342   -6.66830
       O   -18.22593   -2.31266   -6.00314
      H1   -17.82975   -2.75177   -5.21862
       H   -15.15764   -1.48476  -10.73486
       O   -16.05776   -1.59634  -10.38925
      H1   -16.51790   -2.02344  -11.10515
       H   -17.58160    3.77281   -6.39997
       O   -17.79823    4.71220   -6.55538
      H1   -17.61770    4.90045   -7.50121
       H   -17.71410   -3.73606  -12.37431
       O   -17.34569   -3.85490  -11.49067
      H1   -16.42110   -4.05103  -11.58197
       H   -16.09032   -2.18148   -8.55065
       O   -16.18367   -2.20116   -7.60597
      H1   -15.64477   -1.42299   -7.24748
       H   -19.19277    6.72813  -10.25212
       O   -19.01325    7.34929   -9.57596
      H1   -19.89358    7.69539   -9.24148
       H   -12.80007   -1.41492  -11.72394
       O   -13.32682   -1.54908  -10.90613
      H1   -12.78057   -2.24924  -10.42472
       H   -16.64113    2.39879  -15.88510
       O   -17.11530    2.00905  -15.12890
      H1   -16.56993    2.34017  -14.38646
       H   -16.59248    2.23100   -5.29736
       O   -17.04693    2.08155   -6.12329
      H1   -17.68419    1.42635   -5.72872
       H   -12.56270   -2.73645   -6.16899
       O   -12.76666   -2.00076   -6.75082
      H1   -11.88419   -1.55510   -6.63991
       H   -19.80565    4.56688  -10.88533
       O   -19.24857    4.32020  -10.10669
      H1   -19.83984    4.64924   -9.47972
       H   -12.73260    5.24810  -10.39272
       O   -13.65255    4.92891  -10.43790
      H1   -13.77758    5.17718  -11.36537
       H   -11.32898    1.78779   -7.33082
       O   -11.67248    1.25961   -8.06854
      H1   -12.63495    1.16262   -7.88626
       H   -15.07329    2.37147   -3.52073
       O   -15.96803    2.55100   -3.38380
      H1   -16.28671    1.80924   -2.86753
       H   -18.33905   -0.65361   -5.07018
       O   -18.05481    0.02566   -4.42015
      H1   -17.93636   -0.48771   -3.61973
       H   -13.13883    0.13381  -13.91759
       O   -13.75021    0.80831  -14.23335
      H1   -14.29196    1.07476  -13.49769
       H   -18.55558   -2.35328  -10.49316
       O   -19.12684   -2.00139   -9.81666
      H1   -19.33293   -2.94881   -9.47766
       H   -18.39590    2.99277   -2.51333
       O   -19.03322    3.42894   -3.08366
      H1   -18.46054    3.99018   -3.57106

