90
frame 1 | Written by MDAnalysis XYZWriter (release 2.4.3)
       H    -7.49819    1.36143    8.14860
       O    -7.43742    1.44482    9.11451
      H1    -8.29077    1.86391    9.40137
       H   -11.30696   -3.12883   -1.06789
       O   -11.09124   -2.22677   -1.30284
      H1   -10.14620   -2.23104   -1.00543
       H   -14.45174    1.09100    2.42425
       O   -14.20368    1.52683    3.23426
      H1   -14.73607    2.30517    3.31847
       H   -10.42577   -1.21185    8.12678
       O   -10.90515   -1.66865    7.38450
      H1   -10.17237   -2.11761    6.91371
       H   -10.75951    1.99830    2.08375
       O   -11.14762    2.19193    2.98327
      H1   -12.09934    2.01662    2.73446
       H   -11.11622    3.00956    7.57230
       O   -10.32961    3.46000    7.77583
      H1    -9.97615    3.61668    6.83049
       H    -7.26260    2.05331    6.31693
       O    -7.62389    1.14425    6.51038
      H1    -8.10438    1.07127    5.65163
       H    -4.08084    1.66552    7.55757
       O    -5.00326    1.83599    7.35220
      H1    -5.22073    0.94106    6.99466
       H   -13.16365    1.24071    9.21968
       O   -13.14457    1.81712    8.48909
      H1   -12.67501    1.24901    7.82782
       H    -9.23276   -3.03177    3.44268
       O    -8.77514   -2.23320    3.73062
      H1    -7.85553   -2.38748    3.47628
       H    -7.89858    4.45147    5.49122
       O    -7.10738    4.45648    5.97114
      H1    -6.55148    4.89611    5.29860
       H   -13.31800   -0.10066    0.31539
       O   -13.16821   -1.04214    0.10763
      H1   -12.33652   -1.01452   -0.36499
       H    -6.08584    1.95363    2.97447
       O    -6.70345    1.60090    2.31962
      H1    -7.30352    1.08744    2.91036
       H    -9.30206   -1.43150    1.33404
       O    -9.07441   -1.11512    0.46074
      H1    -8.08741   -1.24290    0.50414
       H    -6.34782   -2.38922    0.33266
       O    -6.44347   -1.86847    1.11670
      H1    -6.03878   -1.00843    0.88427
       H   -12.44955    0.60631    5.06195
       O   -12.31193    0.51629    6.04901
      H1   -11.88505   -0.36635    6.09291
       H    -9.01711   -0.93843   10.38384
       O    -9.03493   -1.24495    9.48440
      H1    -8.18725   -0.88235    9.30951
       H    -9.84343    0.55872    0.35279
       O   -10.01499    1.53428    0.30089
      H1    -9.13133    1.92555    0.33214
       H    -6.26428   -5.35740    0.66089
       O    -7.14489   -4.98592    0.61810
      H1    -7.63113   -5.26587    1.44746
       H   -12.57100    1.86056   -1.54719
       O   -12.58189    1.93247   -0.61462
      H1   -11.65612    1.73981   -0.37233
       H   -12.29852   -3.84436    6.70071
       O   -12.75451   -4.59000    6.39068
      H1   -12.53704   -4.70730    5.46602
       H   -12.40592   -2.13013    3.13171
       O   -11.73359   -1.70211    2.53246
      H1   -12.21083   -1.59063    1.73579
       H    -9.16181   -2.87939    5.15710
       O    -9.38566   -3.49897    5.90152
      H1    -8.58017   -3.89381    6.22223
       H   -10.03589    3.52953    4.15128
       O    -9.64861    3.90294    4.94572
      H1    -9.98958    4.76673    5.10267
       H    -6.43780   -1.10197    5.96408
       O    -5.56466   -0.76747    5.74754
      H1    -5.04399   -1.57979    5.81363
       H   -13.90001   -2.14648    4.82341
       O   -14.00794   -2.59602    3.99033
      H1   -14.37900   -3.46549    4.41227
       H    -4.97443    0.85228   -0.00578
       O    -5.86127    0.49362    0.08438
      H1    -6.08173    0.91436    0.93286
       H   -10.07547   -5.24869    2.16596
       O    -9.30790   -4.97227    2.70797
      H1    -9.16039   -5.68202    3.33066
       H    -9.85518    0.81875    3.56377
       O    -9.06046    0.41623    3.92623
      H1    -9.25819   -0.54325    3.83138
       H    -5.25335    3.04025    4.61998
       O    -4.53950    2.86140    4.03036
      H1    -4.61867    3.62950    3.44204

