90
frame 0 | Written by MDAnalysis XYZWriter (release 2.4.3)
       H     7.46129   -3.58792   -3.01934
       O     6.89573   -4.29177   -3.44052
      H1     6.43279   -3.78898   -4.15317
       H     5.68154    0.37335   -4.56597
       O     4.90537    0.45351   -3.95370
      H1     4.59752   -0.50021   -3.94951
       H    -0.80785    0.54656   -0.39531
       O    -1.12291   -0.27033    0.06554
      H1    -1.69470    0.15385    0.70995
       H     3.01973    0.77294   -5.67479
       O     3.45655    0.16174   -6.28437
      H1     4.33006   -0.01721   -5.85680
       H    -1.53158   -2.81311   -5.58398
       O    -0.78283   -3.40529   -5.34307
      H1    -0.22447   -3.34748   -6.17729
       H    -3.38500    0.85241   -4.97913
       O    -3.03229    0.15208   -4.44798
      H1    -2.15259    0.49422   -4.17200
       H     1.52447   -5.18363   -1.71829
       O     1.18941   -5.16647   -2.62416
      H1     0.37258   -5.75101   -2.55131
       H     3.77228   -2.79519   -9.09185
       O     3.46114   -3.68019   -8.84253
      H1     2.83696   -3.44038   -8.12791
       H     2.38483   -4.79764   -4.40442
       O     3.23430   -4.46580   -4.66057
      H1     3.64783   -4.39165   -3.76316
       H     5.22698   -5.02916   -2.79936
       O     4.47679   -5.16443   -2.24170
      H1     4.08465   -6.00835   -2.49575
       H     7.04509   -0.88219   -5.23925
       O     6.36900   -0.82938   -5.89883
      H1     6.04301   -1.76695   -5.96456
       H     4.93029   -3.99231   -5.62961
       O     5.79454   -3.62671   -5.87864
      H1     6.13504   -4.26691   -6.57025
       H     0.63327   -2.17784   -8.49555
       O     0.40036   -1.27406   -8.79871
      H1    -0.19044   -1.42290   -9.55887
       H     2.62295   -3.15504   -5.78620
       O     2.24381   -2.70641   -6.55323
      H1     2.56060   -1.83010   -6.41656
       H     6.16832    1.02883   -1.10657
       O     5.38252    1.32898   -1.47227
      H1     5.50244    1.24757   -2.47094
       H     3.20456   -1.32875   -2.58589
       O     3.49703   -1.80604   -3.40898
      H1     2.88549   -1.35597   -4.03042
       H    -2.50712   -0.73897   -5.98397
       O    -1.96621   -1.19351   -6.65390
      H1    -1.35343   -0.45791   -6.75982
       H     4.04044    1.79812   -7.39228
       O     4.37313    2.63808   -7.69531
      H1     4.25686    3.19465   -6.88962
       H    -0.13000    1.75039   -8.07529
       O    -0.72535    0.98616   -7.88528
      H1    -0.35611    0.15398   -8.29905
       H     8.16314   -0.76520   -3.32647
       O     8.19705   -1.68570   -3.66109
      H1     9.11020   -1.76522   -3.85096
       H    -0.65286   -4.14603   -8.40423
       O     0.24705   -4.25618   -7.97258
      H1     0.20033   -5.18793   -7.63088
       H     3.27484   -4.58401   -0.68954
       O     2.48380   -4.82030   -0.19864
      H1     2.36424   -4.00863    0.37257
       H     1.14013   -1.83037   -4.03234
       O     1.16547   -1.04996   -4.64532
      H1     1.01667   -1.52018   -5.50793
       H     0.74454   -3.35454   -1.99624
       O     0.33306   -2.69868   -2.55896
      H1     0.12345   -3.30877   -3.29454
       H     3.51411   -2.12828    1.94172
       O     3.13907   -1.30051    1.59211
      H1     2.16079   -1.32724    1.76580
       H     0.08261    0.21029   -4.01286
       O    -0.46934    0.85237   -3.53346
      H1    -0.19384    1.64171   -3.96963
       H     3.25149   -0.93455   -0.05850
       O     3.21266   -0.54690   -0.97709
      H1     4.04268    0.05476   -0.90290
       H     2.12729   -0.17854   -9.12266
       O     2.87047    0.36900   -8.77941
      H1     2.83035    0.10010   -7.87000
       H     0.19695    1.55081   -2.12216
       O     0.32578    1.68496   -1.14340
      H1     1.14882    1.31230   -0.91002
       H    -1.84411   -2.90142   -1.97595
       O    -2.12264   -3.67600   -1.42897
      H1    -2.61276   -3.18207   -0.71345

