90
frame 1 | Written by MDAnalysis XYZWriter (release 2.4.3)
       H   -16.86257    6.39886   -4.86670
       O   -16.73199    6.51110   -3.90659
      H1   -16.00626    5.92717   -3.94103
       H   -13.48857    4.85799   -8.34723
       O   -14.12542    5.20641   -7.68664
      H1   -14.67947    5.79471   -8.23907
       H   -13.38870    8.37728   -2.49037
       O   -12.40913    8.55259   -2.46907
      H1   -12.08991    8.02090   -3.21440
       H   -14.51859    6.85134   -4.79565
       O   -14.25234    5.93612   -4.54536
      H1   -13.99723    5.64675   -5.43196
       H   -14.71729   10.67239   -8.45329
       O   -14.69275   11.46734   -7.96213
      H1   -15.55521   11.92896   -8.20736
       H   -15.83567    7.55315   -9.09149
       O   -16.06100    6.59998   -9.05124
      H1   -16.92102    6.61338   -9.49035
       H    -9.85054   10.94749   -1.75165
       O   -10.75819   11.08068   -2.12742
      H1   -11.09771   10.21221   -2.45229
       H   -11.87654    9.60114   -6.45411
       O   -11.72558    8.75942   -5.94362
      H1   -11.00288    9.00560   -5.36087
       H   -15.87066    9.37212   -2.65974
       O   -16.09786    8.56580   -2.18128
      H1   -16.18728    7.85379   -2.87514
       H   -18.78472    5.86410   -6.14198
       O   -19.76805    5.89652   -6.12496
      H1   -19.84980    5.70123   -5.16754
       H   -16.74693    4.62594   -6.16441
       O   -17.07005    5.45527   -6.56934
      H1   -16.55449    5.39537   -7.41969
       H   -16.66730    8.11397   -7.32767
       O   -16.74917    8.31620   -6.37779
      H1   -17.73369    8.51952   -6.29341
       H   -19.54263   11.76513   -3.58103
       O   -18.88514   11.26677   -4.11199
      H1   -19.26783   11.22507   -5.01628
       H   -13.40813    3.18605   -4.47442
       O   -12.74299    3.02035   -3.83793
      H1   -11.94162    3.38911   -4.16200
       H   -15.03778    8.78978   -0.77590
       O   -14.27873    9.04449   -0.21497
      H1   -14.76257    9.40940    0.53763
       H   -19.82486   11.34054   -7.11221
       O   -19.03657   10.80998   -6.96122
      H1   -19.52960   10.01657   -6.96680
       H   -10.91741    6.95047   -5.96981
       O   -10.44078    6.20275   -5.57824
      H1   -10.54159    6.36025   -4.63858
       H    -8.68236    8.73094   -5.26789
       O    -9.09901    9.34987   -4.61102
      H1    -8.82400    9.08574   -3.72276
       H   -10.68949    9.79782   -8.36782
       O    -9.99819    9.26407   -8.77948
      H1    -9.65719    9.88588   -9.44262
       H   -14.50312   11.12164   -5.87528
       O   -14.57164   11.23480   -4.92985
      H1   -14.55326   10.24956   -4.73365
       H   -18.09346    8.04030   -3.83231
       O   -18.94567    8.45664   -4.23914
      H1   -18.82286    9.42016   -3.87636
       H   -13.64282    8.52983   -5.57856
       O   -14.40266    8.51054   -5.01895
      H1   -15.10212    8.65160   -5.72154
       H   -11.69359   11.89003   -7.05734
       O   -11.71620   11.01043   -7.50165
      H1   -11.99134   11.31810   -8.39717
       H   -12.62697    3.51436   -1.16606
       O   -12.50493    4.38015   -1.49894
      H1   -12.98004    4.39332   -2.30812
       H   -15.60292    4.42160   -0.88643
       O   -16.10854    4.87210   -1.59169
      H1   -15.92904    4.12346   -2.16007
       H   -17.45531   11.91860   -3.69442
       O   -16.63242   12.40576   -3.35232
      H1   -15.99720   11.93457   -3.93216
       H   -15.49817    9.46315   -9.86682
       O   -14.86883    9.12925   -9.17806
      H1   -14.01496    8.90759   -9.66166
       H   -11.31904    5.49093   -2.20377
       O   -10.66329    5.92217   -2.84114
      H1   -10.37252    6.70228   -2.28346
       H   -13.52086   10.59558   -0.84921
       O   -13.45438   11.55432   -0.88008
      H1   -12.55852   11.67384   -1.29821
       H   -13.92942   14.36351   -3.64681
       O   -13.16890   13.77479   -3.93722
      H1   -13.63902   12.97955   -4.21428

