90
frame 1 | Written by MDAnalysis XYZWriter (release 2.4.3)
       H   -16.86257    6.39886   -4.86670
       O   -16.73199    6.51110   -3.90659
      H1   -16.00626    5.92717   -3.94103
       H   -19.22634   12.49027    2.23532
       O   -19.44314   12.10752    3.09544
      H1   -19.05491   11.23279    2.96155
       H   -13.38870    8.37728   -2.49037
       O   -12.40913    8.55259   -2.46907
      H1   -12.08991    8.02090   -3.21440
       H   -14.45174    1.09100    2.42425
       O   -14.20368    1.52683    3.23426
      H1   -14.73607    2.30517    3.31847
       H   -14.98201    1.66623    0.01696
       O   -15.21135    0.74067   -0.02911
      H1   -16.03406    0.74449    0.49287
       H   -14.51859    6.85134   -4.79565
       O   -14.25234    5.93612   -4.54536
      H1   -13.99723    5.64675   -5.43196
       H   -15.98234    7.36851    4.82709
       O   -15.52395    7.29786    5.70207
      H1   -15.30880    8.21147    6.02268
       H   -17.82388    9.33509    3.64663
       O   -18.65114    9.49245    3.16764
      H1   -18.50297    9.05904    2.33885
       H   -15.87066    9.37212   -2.65974
       O   -16.09786    8.56580   -2.18128
      H1   -16.18728    7.85379   -2.87514
       H   -18.78472    5.86410   -6.14198
       O   -19.76805    5.89652   -6.12496
      H1   -19.84980    5.70123   -5.16754
       H   -19.05400   12.85155   -0.33708
       O   -18.97568   13.18918    0.55598
      H1   -18.07645   13.44504    0.65399
       H   -17.92220    2.57215    1.81691
       O   -18.14386    3.28886    1.20738
      H1   -18.16060    2.94014    0.30349
       H   -15.03778    8.78978   -0.77590
       O   -14.27873    9.04449   -0.21497
      H1   -14.76257    9.40940    0.53763
       H   -16.08224    4.20570    0.95629
       O   -15.15415    4.05719    0.89565
      H1   -14.79551    4.93158    0.81982
       H   -15.71481   11.41653    0.96731
       O   -15.78864   10.56298    1.40065
      H1   -15.79528   10.79937    2.34306
       H   -16.19047    3.97497    3.86796
       O   -15.27651    3.99370    3.55607
      H1   -15.33616    4.11934    2.56135
       H   -18.03469    8.85143   -0.00871
       O   -18.47495    9.62800    0.35571
      H1   -17.69227   10.02741    0.79150
       H   -15.98151    1.50746   -3.09682
       O   -16.21070    2.41820   -2.99844
      H1   -17.13464    2.53605   -3.04997
       H   -15.77785    6.06816    2.88082
       O   -16.47790    6.66063    2.99351
      H1   -16.66902    6.89810    2.11892
       H   -16.92918    6.40615   -0.54621
       O   -17.11595    7.07924    0.13021
      H1   -17.97779    6.71529    0.42318
       H   -13.32804    6.20148   -0.05141
       O   -13.57025    6.43302    0.87795
      H1   -13.82659    7.38194    0.73820
       H   -14.31569    6.12146    5.74243
       O   -13.51900    5.55915    5.61568
      H1   -13.73851    5.21159    4.71055
       H   -18.09346    8.04030   -3.83231
       O   -18.94567    8.45664   -4.23914
      H1   -18.82286    9.42016   -3.87636
       H   -12.62697    3.51436   -1.16606
       O   -12.50493    4.38015   -1.49894
      H1   -12.98004    4.39332   -2.30812
       H   -15.60292    4.42160   -0.88643
       O   -16.10854    4.87210   -1.59169
      H1   -15.92904    4.12346   -2.16007
       H   -17.79865    0.38219   -0.90308
       O   -18.25839    1.04706   -0.36726
      H1   -19.17566    0.80403   -0.43480
       H   -13.52086   10.59558   -0.84921
       O   -13.45438   11.55432   -0.88008
      H1   -12.55852   11.67384   -1.29821
       H   -18.89559    3.93609   -2.53241
       O   -18.45217    3.92874   -3.34083
      H1   -18.32884    4.93319   -3.40173
       H   -17.78139    3.49020    5.39933
       O   -17.82587    3.78401    4.46561
      H1   -18.22780    4.61956    4.52568
       H   -15.99226   11.54778    4.18238
       O   -16.28343   10.58377    4.14402
      H1   -15.43328   10.17058    4.42948

