90
frame 0 | Written by MDAnalysis XYZWriter (release 2.4.3)
       H     8.43657   15.73305   -4.46857
       O     9.19132   15.73227   -3.87630
      H1     8.95116   16.28139   -3.13651
       H     7.28804   15.66695    5.41969
       O     7.64446   15.20365    4.66187
      H1     7.82456   14.32135    5.02145
       H    11.89285   14.75147    3.46431
       O    10.96432   14.70102    3.29661
      H1    10.63847   15.45945    3.73918
       H    13.77522   18.51134   -3.17537
       O    12.81109   18.30988   -3.05563
      H1    12.85775   17.77776   -2.26688
       H     6.67567   14.56445   -1.98511
       O     6.98582   13.67231   -1.84748
      H1     6.69958   13.33206   -2.74841
       H    14.60875   14.46591    1.84506
       O    14.78502   15.19103    2.49914
      H1    15.35801   14.73513    3.09774
       H    11.65111   17.82778    3.05228
       O    10.93509   17.52517    3.63483
      H1    11.30315   17.36999    4.51519
       H     7.12389   13.81247    2.04993
       O     7.26987   12.86259    2.06204
      H1     6.84342   12.67108    2.88322
       H    15.09268   18.69687   -0.90486
       O    14.72366   19.21879   -0.19130
      H1    15.49890   19.75501    0.07673
       H     4.90942   14.71883    1.83839
       O     4.18335   14.33908    1.29301
      H1     4.36097   13.39815    1.19791
       H    13.64032   14.68068   -0.43903
       O    12.76340   14.59871    0.01242
      H1    12.59167   13.65398   -0.06160
       H    12.23591   19.30287    0.97746
       O    12.56251   18.43870    1.39817
      H1    13.41669   18.32801    0.93596
       H    10.80865   12.63747   -0.88045
       O    11.12198   11.89627   -0.33428
      H1    10.58668   12.08432    0.48406
       H    11.44549   15.98797    6.63887
       O    11.87046   16.63501    6.03994
      H1    11.73171   17.41069    6.62977
       H     5.55063   11.34752    0.63017
       O     5.86752   11.28921   -0.30455
      H1     6.24906   12.20459   -0.42765
       H    13.72676   12.52731    1.92828
       O    14.42515   12.53084    1.22645
      H1    15.07250   12.03004    1.70946
       H     9.19817   15.25280    1.04304
       O     8.82852   16.11625    1.20976
      H1     9.56301   16.59754    1.63664
       H     9.36256   19.75541   -1.97742
       O     9.31990   19.64709   -1.02741
      H1     9.26133   18.66190   -1.13155
       H     8.44944   12.55326    6.54987
       O     9.02758   12.87009    5.87823
      H1     9.59914   13.47670    6.43466
       H     5.89473   17.63326    3.11522
       O     5.73606   18.57407    3.39209
      H1     5.66603   18.41655    4.38262
       H     8.47073   13.95469   -1.57036
       O     9.36248   14.07070   -1.14511
      H1     9.74272   14.70339   -1.85424
       H     5.37666   16.39883   -1.93714
       O     6.37492   16.28029   -1.95561
      H1     6.54237   16.91463   -2.73158
       H    11.48538   11.60734    2.67310
       O    12.28053   11.18691    3.09939
      H1    12.51503   10.55329    2.39438
       H     4.60956   18.20390   -0.49212
       O     5.51080   18.15570   -0.12041
      H1     6.00831   17.46239   -0.55910
       H     9.01863   12.84438    2.05074
       O     9.88682   12.51257    2.10534
      H1    10.24597   13.32130    2.55983
       H    14.34409   16.40422    6.13601
       O    14.91399   16.00958    5.43161
      H1    14.28496   15.44495    4.89917
       H     6.79675   15.63822    3.02753
       O     6.35167   15.86627    2.22390
      H1     7.09958   16.19450    1.70122
       H    13.65606   13.81922    5.68936
       O    13.29252   13.87220    4.73220
      H1    12.68624   13.13192    4.80251
       H    12.36532   16.19135   -0.34513
       O    12.01222   17.00646   -0.74401
      H1    12.19721   17.65029    0.00676
       H     9.13389   16.53370   -0.65596
       O     9.42803   17.00772   -1.45971
      H1    10.41910   16.99196   -1.43297

