90
frame 1 | Written by MDAnalysis XYZWriter (release 2.4.3)
       H     4.54966   -1.07027    6.85325
       O     4.54157   -1.72889    6.09707
      H1     4.44150   -2.57723    6.61440
       H     6.71139   -4.19229    1.96738
       O     6.10618   -4.12713    1.21106
      H1     6.58576   -3.38063    0.75367
       H     6.52964   -0.47473    1.81546
       O     7.42361   -0.04234    1.79557
      H1     7.77088   -0.65101    2.49985
       H    12.42397   -4.56417   -0.35651
       O    12.07978   -4.16849    0.44186
      H1    11.52781   -3.43750    0.19252
       H     1.41824    0.23504    4.00941
       O     2.01526    0.84587    4.44544
      H1     2.83675    0.66509    3.93165
       H     9.52789   -1.64260    6.27538
       O     9.81391   -1.07915    6.99535
      H1     9.08889   -0.49088    7.06456
       H     4.99615   -3.48359    2.27062
       O     4.39923   -3.01002    2.89921
      H1     3.83176   -3.78084    3.10798
       H     8.46310   -4.96306    2.80661
       O     7.75700   -4.91666    3.51077
      H1     8.10967   -5.61477    4.06395
       H     6.42204   -2.71324    5.89382
       O     7.28997   -3.14083    5.71339
      H1     6.96125   -3.69594    5.01479
       H     6.81285    1.35819   -0.96346
       O     5.96255    1.89224   -0.92854
      H1     5.68414    1.72390   -1.80332
       H     8.88729    4.36323    0.52401
       O     8.98345    4.75624   -0.38453
      H1     9.82974    5.20496   -0.22145
       H    12.07026    1.78645    0.22430
       O    11.29446    2.06537   -0.21077
      H1    10.68308    2.24707    0.52860
       H     3.68000    3.83811    3.11297
       O     4.55933    3.63559    2.76950
      H1     4.39310    3.13850    1.99133
       H    10.73021   -1.39560    0.92325
       O    10.53133   -1.22516    1.88143
      H1    11.23636   -0.61429    2.10777
       H     9.95840    2.48020    3.09164
       O     9.63115    2.14745    2.16848
      H1     8.79142    1.83080    2.46268
       H     4.79260    1.03680    5.24052
       O     5.17391    1.21918    6.07642
      H1     6.10820    0.94912    5.93273
       H    11.69966   -0.00654   -1.05465
       O    11.47701   -0.90796   -0.71757
      H1    11.83032   -1.40422   -1.45497
       H     7.90863   -1.53869   -0.20395
       O     7.84351   -2.49034   -0.09903
      H1     8.76855   -2.74474   -0.32660
       H     8.37331   -0.91088   -3.40157
       O     8.24728   -1.83273   -3.51821
      H1     8.84430   -2.23560   -2.80473
       H     3.29498   -2.06816    1.77792
       O     2.93138   -1.26645    1.35802
      H1     1.99288   -1.57209    1.34037
       H     9.40898    3.48619    5.65838
       O    10.09759    2.76480    5.55277
      H1    10.48858    2.70826    6.45361
       H     5.20751    4.57986   -1.47534
       O     4.45865    4.03724   -1.10299
      H1     4.93183    3.15755   -0.99668
       H     3.36366   -0.34665    0.08927
       O     3.60664    0.47283   -0.47661
      H1     4.44166    0.63866   -0.05874
       H    11.48370   -1.87096    3.61773
       O    11.36882   -2.10310    4.57592
      H1    11.62900   -1.27140    5.04087
       H     8.46850   -2.20917    4.37289
       O     8.44765   -1.37790    3.90582
      H1     9.18725   -1.47241    3.32269
       H     8.29009    1.94587   -2.81249
       O     8.20967    1.29520   -3.52377
      H1     8.42879    1.81269   -4.34731
       H     7.98784    0.27816    0.40420
       O     8.27516    0.46415   -0.54077
      H1     9.15005    0.93135   -0.37264
       H    13.35690    0.44729    2.45125
       O    12.77063   -0.13733    2.91533
      H1    13.09025   -1.02996    2.67661
       H     4.05267   -0.64391    2.73638
       O     4.61330   -0.10510    3.32105
      H1     4.60973   -0.72062    4.13465
       H     8.25889    0.87757    5.59609
       O     7.63542    0.23463    6.02974
      H1     7.69298   -0.57469    5.55877

