90
frame 1 | Written by MDAnalysis XYZWriter (release 2.4.3)
       H    18.27696   -9.25521   16.08918
       O    19.17420   -9.20011   16.39405
      H1    19.60498   -9.42749   15.50907
       H    11.19095   -4.58782   13.92240
       O    11.49259   -4.02943   14.68001
      H1    11.40465   -4.60883   15.41555
       H    18.00324   -9.65379   11.02761
       O    18.80754   -9.28434   11.42661
      H1    18.99264   -8.63655   10.73076
       H    16.04686   -7.82478   18.88741
       O    15.36796   -7.46237   18.21663
      H1    15.92497   -7.01284   17.56804
       H    17.23369  -13.17331   17.84223
       O    17.59855  -13.47899   18.72442
      H1    17.86876  -12.73341   19.35655
       H    13.43578  -11.94895   12.60327
       O    14.31706  -11.94292   13.05113
      H1    14.06519  -12.07181   13.92267
       H    18.37548   -7.05464   18.51067
       O    18.11563   -7.06293   19.44034
      H1    17.59533   -6.31100   19.70603
       H    15.50225   -5.03619   12.45403
       O    15.72509   -4.84648   11.55588
      H1    16.21861   -4.03437   11.54029
       H    16.43401   -2.05895   19.54926
       O    16.18576   -2.66817   18.87453
      H1    16.17565   -3.48113   19.42862
       H    18.20107  -15.88409   19.85619
       O    18.54585  -15.93133   18.93841
      H1    18.09197  -15.15060   18.62532
       H    17.69184   -6.74942   13.00350
       O    17.17990   -7.21483   13.70007
      H1    16.51722   -7.53426   13.10686
       H    17.09729  -11.30291   13.36541
       O    17.99074  -11.55860   13.70717
      H1    18.46064  -10.73063   13.70843
       H    17.27002    0.91757   16.60291
       O    17.47542    0.70290   17.51303
      H1    18.33115    0.26355   17.56540
       H    12.69596   -3.14516   18.88006
       O    11.73404   -3.36676   19.05865
      H1    11.60443   -3.04697   19.97731
       H    16.95564   -6.41730   15.45160
       O    16.69822   -5.84707   16.22918
      H1    17.56359   -6.00488   16.71785
       H    15.72512   -8.69455   16.78992
       O    16.31390   -9.00108   16.10869
      H1    15.85940   -8.70082   15.33696
       H    11.50618   -4.42750   17.75467
       O    11.33711   -5.15044   17.13164
      H1    10.33853   -5.27816   17.27072
       H    15.06321   -1.59144   14.96918
       O    15.98532   -1.88192   14.89442
      H1    16.31007   -1.75986   15.83479
       H    12.71075   -2.61919   15.25624
       O    13.34391   -1.91830   15.48649
      H1    13.04981   -1.04935   15.19260
       H    19.44410  -10.15218   18.02648
       O    19.48560  -10.87540   18.66099
      H1    19.19714  -10.27459   19.41712
       H    17.24805   -5.54759   11.38746
       O    18.16763   -5.87264   11.40172
      H1    18.11958   -6.33014   10.54613
       H    16.34913  -11.41955   10.53398
       O    16.51815  -10.61869   11.05268
      H1    15.63975  -10.29020   11.35602
       H    12.17762   -6.42761   18.53443
       O    12.56519   -7.18616   18.94467
      H1    13.24966   -7.28615   18.24693
       H    17.46468  -12.41942   15.42525
       O    16.80192  -12.52154   16.14935
      H1    16.46700  -11.56487   16.25396
       H    13.55161   -8.34430   14.82491
       O    14.27677   -7.73762   15.09156
      H1    13.79902   -7.25561   15.79604
       H    11.73055   -8.91475   18.18271
       O    10.95251   -9.39834   17.79701
      H1    11.16262  -10.33869   17.91179
       H    13.36818   -1.74359   17.33584
       O    13.80215   -1.56462   18.18022
      H1    14.63237   -2.02424   18.11184
       H    18.41236   -2.70497   12.71281
       O    17.42401   -2.81235   12.67469
      H1    17.06972   -2.49926   13.50537
       H    12.57095  -14.60504   18.16688
       O    13.03082  -13.80512   17.98735
      H1    13.74557  -13.83523   18.66776
       H    17.88112   -3.89364   16.36096
       O    18.16018   -3.09926   16.76861
      H1    17.52602   -2.91355   17.51064

