90
frame 1 | Written by MDAnalysis XYZWriter (release 2.4.3)
       H   -17.64870   -7.85116   -3.07822
       O   -17.01435   -7.14968   -3.24150
      H1   -16.24760   -7.74057   -3.49080
       H   -12.69587   -8.69956   -1.78806
       O   -12.43216   -9.30505   -2.52100
      H1   -11.48194   -9.26536   -2.45427
       H   -10.16961  -14.65967    0.78805
       O   -10.21790  -13.71330    0.57495
      H1    -9.50018  -13.14217    0.89395
       H    -8.34466  -10.97142   -2.11887
       O    -8.46868  -11.83429   -1.71189
      H1    -7.68361  -11.90058   -1.18922
       H   -11.33722  -13.54866   -3.40380
       O   -11.53977  -14.18141   -4.05402
      H1   -10.79206  -14.80158   -3.95701
       H   -16.24504  -12.43590   -1.21654
       O   -16.54893  -13.07010   -0.53475
      H1   -17.49609  -12.94329   -0.60734
       H   -12.89842  -10.96985   -1.20763
       O   -13.48986  -11.03020   -0.42363
      H1   -13.62841  -11.99784   -0.37594
       H   -13.32553   -6.74332   -4.57049
       O   -13.23044   -7.63756   -4.93219
      H1   -13.49937   -8.23879   -4.24702
       H   -16.33402   -7.71069    3.18540
       O   -15.74641   -7.28712    2.53658
      H1   -15.20534   -7.94768    2.11232
       H   -14.13534  -14.22715    0.15122
       O   -13.86116  -13.77822   -0.68527
      H1   -14.81020  -13.54667   -0.85920
       H    -9.47913   -8.53980   -2.45696
       O    -9.31175   -9.39687   -2.92215
      H1    -9.61012   -9.27977   -3.84738
       H   -11.15725  -12.86087   -5.51299
       O   -10.48708  -12.29917   -5.92512
      H1   -11.02118  -11.87034   -6.58018
       H   -17.49384  -11.26002    1.66862
       O   -16.65179  -10.91708    1.30460
      H1   -16.37790  -11.65230    0.76220
       H   -11.49425   -7.81302   -5.36386
       O   -10.58157   -8.07762   -5.36442
      H1   -10.45148   -8.61200   -6.15241
       H   -10.35250  -10.81458    3.69798
       O   -10.68145  -11.45217    4.34698
      H1    -9.95860  -12.12500    4.25492
       H   -10.97352   -6.66063   -2.50295
       O   -10.06754   -6.47322   -2.75697
      H1    -9.66873   -6.48002   -1.81406
       H   -13.77925   -9.70878    1.25411
       O   -14.36352   -9.59467    2.07401
      H1   -15.12319  -10.17267    1.79239
       H   -11.63780  -12.78561   -1.12656
       O   -11.55560  -12.21376   -1.88696
      H1   -10.62703  -11.93229   -1.86425
       H   -15.74715  -15.05979   -3.21576
       O   -15.18869  -15.72584   -2.76702
      H1   -14.52131  -15.22424   -2.25727
       H   -11.50519  -10.13476    0.37803
       O   -11.33004   -9.18495    0.31080
      H1   -10.43534   -9.15282    0.68584
       H   -18.62580   -9.01667    0.01308
       O   -17.71907   -8.87127   -0.33745
      H1   -17.25707   -9.63437    0.09563
       H   -11.79151   -7.35564    1.30845
       O   -11.72376   -6.40925    1.58774
      H1   -12.00310   -6.45143    2.51052
       H   -13.08417   -6.40351   -2.38837
       O   -12.57050   -6.59886   -1.62245
      H1   -12.75192   -5.87745   -0.97475
       H   -12.47425  -11.43426    3.70180
       O   -13.36615  -11.77285    3.40957
      H1   -13.56506  -10.91310    2.91958
       H   -15.65477  -12.29630   -3.35020
       O   -15.27074  -11.63304   -2.76078
      H1   -14.37188  -11.62599   -3.10880
       H   -14.83909  -10.52598   -6.44021
       O   -14.09293  -10.84439   -5.97580
      H1   -14.14754  -10.16465   -5.24835
       H   -12.25880  -14.09013    1.46788
       O   -13.04446  -14.21967    2.00816
      H1   -13.15559  -13.29951    2.40924
       H   -15.50857   -9.96407   -3.51882
       O   -15.42629   -9.19665   -4.06581
      H1   -15.92550   -9.38621   -4.82527
       H   -12.02680  -15.83726   -3.76262
       O   -12.24101  -16.75600   -3.54669
      H1   -11.40055  -17.18612   -3.28561
       H   -16.43590  -13.96207   -5.49404
       O   -15.85845  -13.56082   -4.81962
      H1   -15.37210  -12.98477   -5.41557

