90
frame 1 | Written by MDAnalysis XYZWriter (release 2.4.3)
       H    -2.11658   13.40500   -2.61021
       O    -2.02306   13.55447   -1.65220
      H1    -1.99452   14.52469   -1.57825
       H    -3.68948   12.29658   -6.46841
       O    -2.93240   11.70788   -6.49334
      H1    -2.14693   12.16208   -6.93442
       H    -4.74360   16.19759   -5.29584
       O    -3.93174   16.47608   -4.82744
      H1    -3.94077   15.85784   -3.98748
       H    -0.77167   12.04806   -1.76225
       O    -0.47804   11.19150   -1.41699
      H1     0.18735   10.81417   -2.02393
       H    -6.72177   16.98584   -6.28083
       O    -6.48783   16.27123   -5.69742
      H1    -7.12452   15.55338   -5.70176
       H    -5.94930   17.58864   -0.85573
       O    -5.97211   18.49817   -0.40757
      H1    -5.53419   19.05346   -1.12663
       H    -7.10652   16.06623    1.49949
       O    -6.20583   16.29460    1.72591
      H1    -6.20564   17.23499    1.50149
       H    -4.53663   11.72081   -0.24783
       O    -5.37600   12.06502   -0.56904
      H1    -5.94704   11.78080    0.09984
       H    -2.87626   15.72063   -0.27079
       O    -2.10798   16.10432   -0.75429
      H1    -2.51765   16.13518   -1.66783
       H    -7.24890   15.29580   -0.79289
       O    -6.49626   15.72529   -1.23123
      H1    -6.91884   15.95852   -2.06527
       H    -3.97313   18.90238   -3.95960
       O    -3.35456   19.57214   -3.70992
      H1    -3.83171   19.95141   -2.95043
       H   -11.65922   13.80526   -3.09870
       O   -10.72181   13.92821   -2.78134
      H1   -10.36022   13.01490   -2.76676
       H    -5.33653   14.96243   -2.06018
       O    -4.62607   14.71235   -2.72991
      H1    -4.22211   14.06886   -2.11797
       H    -7.76307   10.62482    0.57705
       O    -7.86195   11.58890    0.77640
      H1    -8.78703   11.61720    1.19937
       H    -1.77094   13.29286   -4.74130
       O    -1.44808   12.63599   -4.15068
      H1    -2.11518   11.90162   -4.33906
       H    -1.72776   15.40386   -6.48100
       O    -2.24338   14.64342   -6.16835
      H1    -3.14688   15.02860   -6.17339
       H    -3.59266   16.04252    2.94198
       O    -3.23329   15.15494    2.83421
      H1    -3.75777   14.99076    1.98014
       H    -8.34413   11.00385   -4.03493
       O    -7.84296   11.67640   -3.48949
      H1    -6.94326   11.25913   -3.42163
       H    -9.40565   19.79914   -1.14791
       O    -9.30526   19.07731   -0.51996
      H1    -8.35013   19.08245   -0.56362
       H    -8.98592   14.43770   -4.33806
       O    -8.17375   14.12966   -4.73771
      H1    -8.11797   13.35081   -4.15901
       H   -10.50825   15.47072   -3.64781
       O   -10.07230   16.27060   -3.93711
      H1   -10.70351   16.98495   -3.82481
       H    -5.13708   14.14648    4.15855
       O    -6.02720   14.62811    4.20686
      H1    -6.05395   15.12002    3.38720
       H    -1.46032   17.11694   -4.67198
       O    -1.15628   16.61505   -3.88623
      H1    -0.49858   16.01742   -4.33364
       H    -5.16248   11.41045   -2.18335
       O    -4.86492   11.40527   -3.11231
      H1    -4.01918   10.94124   -3.06040
       H   -10.70310   14.92004   -1.34967
       O   -11.09098   15.03729   -0.42920
      H1   -11.44242   15.99995   -0.58513
       H    -4.73813   13.39024   -4.65249
       O    -5.17140   13.19231   -5.48585
      H1    -6.08083   13.16655   -5.23874
       H    -2.79999   11.24836    1.39145
       O    -2.91027   11.45120    0.46604
      H1    -2.17424   12.12350    0.36248
       H    -5.16578   15.11178    0.75257
       O    -4.28617   14.63305    0.58848
      H1    -4.59574   13.79598    0.18465
       H    -9.57411   15.24591    0.34090
       O    -8.61508   15.27365    0.49559
      H1    -8.58117   14.80510    1.35698
       H     0.53210   16.37948   -0.04419
       O     0.03991   16.30061    0.75281
      H1    -0.86805   16.03611    0.43665

