90
frame 0 | Written by MDAnalysis XYZWriter (release 2.4.3)
       H    16.56810   -6.74880   -4.26871
       O    16.54715   -7.02939   -3.32346
      H1    17.35249   -6.62743   -3.01696
       H    14.48214   -5.14848   -5.56707
       O    13.96775   -5.34057   -6.37506
      H1    13.12572   -5.64656   -6.03276
       H    15.77235    0.42701    4.24490
       O    16.04843   -0.38730    3.81293
      H1    16.09295   -0.01519    2.91361
       H    13.79590   -5.68267   -2.81611
       O    13.48295   -5.00307   -3.43660
      H1    13.78515   -4.19543   -2.92434
       H    15.41613    0.33610   -2.62214
       O    15.10420    0.15631   -1.70023
      H1    14.28630    0.56923   -1.56761
       H    12.60131   -8.05385   -0.71456
       O    12.65359   -7.44546   -1.48055
      H1    13.08127   -8.02688   -2.12350
       H    18.61604   -0.66908   -0.12114
       O    18.50125   -0.64375   -1.05060
      H1    17.94648   -1.37961   -1.37478
       H    12.29786   -3.06689    0.63520
       O    11.35960   -3.26958    0.82303
      H1    10.89349   -2.48507    0.43970
       H    13.43639   -3.95992    2.99948
       O    13.07453   -3.06991    2.88482
      H1    12.32771   -3.31307    2.29821
       H    17.86391   -3.48029   -2.99665
       O    17.28520   -2.70175   -2.88853
      H1    17.04436   -2.49742   -3.80123
       H    15.93821   -0.58489    0.13795
       O    16.34764   -0.26770    0.92786
      H1    16.97808    0.40838    0.58633
       H    10.95251   -6.80689   -1.80240
       O    10.08463   -6.50309   -1.58077
      H1     9.75838   -7.04381   -0.88919
       H    15.31766   -5.06908    0.82254
       O    15.73697   -4.32320    0.43687
      H1    16.06184   -3.88977    1.17882
       H    15.09692    1.23364    1.03244
       O    14.50045    1.87454    1.44141
      H1    14.28213    2.45598    0.64243
       H    17.26034   -5.42425    0.14174
       O    18.14585   -5.50919   -0.31366
      H1    18.73284   -5.16388    0.41387
       H    15.87582    1.14772   -4.64061
       O    16.26269    0.50463   -4.01720
      H1    17.19510    0.62804   -4.19703
       H    10.32423   -4.52265   -2.40285
       O    10.20342   -3.55659   -2.52607
      H1    11.04499   -3.19034   -2.27403
       H    10.54266   -5.51706   -5.42962
       O    11.48333   -5.85391   -5.29165
      H1    11.74487   -5.11213   -4.63043
       H    11.40006    0.00367    0.61668
       O    10.89593   -0.68001    0.18042
      H1    11.26036   -0.75314   -0.74143
       H    16.19201   -8.46155   -1.47521
       O    16.06864   -8.77747   -0.56050
      H1    16.65086   -9.62232   -0.52359
       H     8.14625   -1.47934   -0.52718
       O     8.50515   -2.32002   -0.17568
      H1     8.85374   -2.71052   -0.98000
       H     8.16314   -0.76520   -3.32647
       O     8.19705   -1.68570   -3.66109
      H1     9.11020   -1.76522   -3.85096
       H    12.94829   -1.41607   -2.06803
       O    12.12327   -1.11255   -2.40633
      H1    12.15740   -0.15904   -2.55445
       H    13.36005   -2.83164   -6.37505
       O    12.75960   -2.31515   -6.96542
      H1    12.89310   -2.83002   -7.77348
       H    15.08205   -3.64363   -0.94065
       O    14.48623   -3.28448   -1.71714
      H1    15.15099   -2.95476   -2.29138
       H    19.72065   -5.39432   -2.65486
       O    18.78952   -5.14907   -2.92149
      H1    18.42013   -5.18073   -1.96908
       H    12.55972    2.54550   -3.16653
       O    12.35345    1.85519   -2.55721
      H1    11.84550    2.34288   -1.87090
       H    15.44084   -1.48969   -4.70028
       O    15.41484   -2.32004   -5.24828
      H1    15.83632   -1.93950   -6.02053
       H     9.98727   -4.49840    1.14062
       O     9.32225   -5.17516    1.39121
      H1     8.66858   -4.83842    0.74062
       H    13.52048    0.43262    2.63813
       O    13.17869   -0.25915    3.19838
      H1    13.68489   -0.99694    2.94957

