90
frame 1 | Written by MDAnalysis XYZWriter (release 2.4.3)
       H     6.33318    5.70625  -19.19289
       O     5.39808    5.85173  -19.45035
      H1     4.96151    5.13045  -18.99552
       H     4.97032    7.45680  -13.86993
       O     4.52740    7.43003  -13.00869
      H1     3.63219    7.68614  -13.33923
       H     3.20197   10.80425  -12.04012
       O     3.57073   10.96958  -12.94214
      H1     4.47244   10.81431  -12.67926
       H     6.61432   11.97542  -18.04271
       O     6.20937   11.41425  -18.76480
      H1     6.04956   12.12965  -19.45752
       H    -4.52760    5.15186  -18.58582
       O    -3.59091    5.02340  -18.93979
      H1    -3.14350    4.56485  -18.27372
       H     1.37935    4.21070  -13.49714
       O     2.22642    3.88294  -13.13737
      H1     1.97826    3.22624  -12.46652
       H     1.12103   13.81365  -16.51465
       O     0.92501   14.71181  -16.55997
      H1     1.66134   15.18642  -16.17713
       H    -2.79827   10.26842  -17.76787
       O    -2.53991   10.15005  -16.87655
      H1    -3.36716   10.32190  -16.39795
       H     2.18597   12.26205  -17.60383
       O     2.01752   11.97481  -16.73329
      H1     1.41813   11.21733  -16.81046
       H    -0.45205    4.47932  -18.52491
       O    -0.70637    4.85133  -17.68713
      H1    -0.61521    4.05921  -17.09817
       H     2.05982   12.01328  -13.77256
       O     1.20923   12.24335  -14.15472
      H1     1.42286   12.20447  -15.05849
       H     3.24932    1.98883  -20.19744
       O     2.64994    1.90547  -19.46404
      H1     3.13107    1.25502  -18.91824
       H     3.94216    7.53148  -16.64519
       O     3.22141    6.98247  -16.29716
      H1     2.78053    7.58761  -15.67304
       H     6.91314    6.31106  -15.15454
       O     6.47639    7.11682  -15.55950
      H1     7.27157    7.61060  -15.82866
       H    -1.43045    7.01107  -17.07213
       O    -1.98576    7.35746  -16.35909
      H1    -2.27200    8.29051  -16.65384
       H     1.83253    9.38093  -15.13572
       O     2.29792    8.98855  -14.44705
      H1     2.68363    9.83800  -14.04953
       H     1.13874    4.68328  -17.09283
       O     1.71404    4.53838  -16.32104
      H1     2.24650    5.34376  -16.28971
       H     4.97406    5.36880  -16.63469
       O     4.83548    4.44183  -16.91165
      H1     4.03428    4.16341  -16.55285
       H     0.89679   14.45130  -18.61081
       O     0.25587   14.58599  -19.35145
      H1    -0.57419   14.67195  -18.93860
       H     0.16801   10.99127  -13.48207
       O     0.03088   10.18531  -12.98160
      H1    -0.92105   10.21207  -12.83270
       H     4.95513   14.20748  -17.64717
       O     4.80945   13.52337  -16.95901
      H1     4.43325   12.78916  -17.41741
       H    -0.85700    7.96428  -14.96779
       O    -0.87016    7.77284  -14.04074
      H1    -0.18962    8.32941  -13.66488
       H     0.39813    9.46880  -17.16795
       O     0.23055   10.03349  -16.41188
      H1    -0.71649   10.06221  -16.49362
       H     1.81118    5.47037  -11.96771
       O     1.44517    6.35782  -11.78617
      H1     0.91542    6.58194  -12.62198
       H    -4.21469    8.20651  -18.44800
       O    -4.74957    8.62109  -17.71237
      H1    -4.32661    8.13198  -16.99771
       H     0.46153    5.06666  -15.20846
       O    -0.01690    5.13432  -14.34739
      H1    -0.65751    5.83285  -14.56492
       H     1.03585    8.99346  -19.36389
       O     1.43709    8.45524  -18.64651
      H1     2.36148    8.69245  -18.67120
       H     5.49354    8.44272  -18.03058
       O     4.67052    8.96548  -18.02996
      H1     5.04225    9.85977  -18.27003
       H     0.06842    2.20366  -15.52450
       O    -0.41777    2.45146  -16.36553
      H1    -1.26938    1.94019  -16.25275
       H    -3.57037    5.36006  -14.32747
       O    -3.76195    6.24437  -14.75462
      H1    -2.94988    6.37458  -15.31703

