90
frame 1 | Written by MDAnalysis XYZWriter (release 2.4.3)
       H    14.49552   -9.35845  -12.85161
       O    14.34611   -8.86171  -13.67556
      H1    14.70350   -8.03983  -13.32683
       H    10.51554   -7.54193  -17.94655
       O    11.28239   -8.10157  -17.73883
      H1    11.68176   -8.10777  -18.61623
       H     4.10615  -15.23507  -13.92647
       O     4.93326  -15.65598  -13.63607
      H1     5.51559  -14.88868  -13.47223
       H    11.73197  -13.58518  -15.87605
       O    12.51147  -13.95024  -16.22739
      H1    13.13038  -13.67177  -15.49753
       H     8.14985  -17.12164  -13.28663
       O     7.57933  -17.07336  -14.02343
      H1     6.79745  -16.71951  -13.60547
       H    10.45397  -10.18716   -9.71029
       O    11.10355  -10.27953  -10.42595
      H1    10.93474  -11.15742  -10.84866
       H    12.84320   -8.24737  -16.70326
       O    13.61702   -8.80835  -16.44394
      H1    13.77240   -8.60571  -15.48546
       H    11.68843  -16.10833  -11.85196
       O    12.05578  -15.39351  -12.41928
      H1    12.97867  -15.38136  -12.12613
       H    12.89883  -16.87759  -13.70998
       O    12.99547  -17.56112  -14.41374
      H1    13.09832  -16.95650  -15.15633
       H     9.30617   -8.26104  -14.72993
       O     8.61801   -7.85563  -15.25867
      H1     9.00033   -6.96443  -15.36085
       H     5.77839  -13.94250  -11.28517
       O     6.50447  -13.96437  -11.89675
      H1     7.28870  -13.73890  -11.32373
       H     8.50690   -9.01692  -16.76604
       O     8.60877   -9.44259  -17.65498
      H1     7.81462   -9.91313  -17.84906
       H    15.14037  -14.11064  -13.93337
       O    14.60854  -14.83472  -13.63211
      H1    15.12627  -15.57188  -14.12382
       H     5.70336   -8.85914  -13.14604
       O     6.34531   -9.57347  -13.20303
      H1     7.01436   -9.16999  -13.72137
       H    10.60023  -11.87518  -15.68022
       O    10.19176  -12.28012  -14.90889
      H1     9.42468  -11.71211  -14.74975
       H     5.74631   -9.87429  -19.22514
       O     6.00053  -10.61606  -18.65920
      H1     5.61598  -10.54390  -17.75697
       H    15.84356  -11.01490  -15.20480
       O    16.71473  -11.18747  -14.72774
      H1    16.51414  -11.09110  -13.79713
       H    11.52466  -10.07945  -17.15091
       O    11.02141  -10.89623  -17.11264
      H1    10.10828  -10.59298  -17.11095
       H     8.95868  -14.29663  -15.38573
       O     8.17537  -14.73738  -15.75829
      H1     8.11341  -15.59469  -15.32184
       H     6.49092  -13.70087  -15.79202
       O     5.69174  -13.15334  -15.83008
      H1     5.91326  -12.48447  -15.14352
       H     6.70887  -11.30211  -13.72508
       O     7.14979  -12.15697  -14.02377
      H1     7.02571  -12.67117  -13.17135
       H     8.22896  -15.70996  -18.96758
       O     8.42046  -14.81923  -18.61358
      H1     8.46057  -14.96533  -17.65562
       H    10.77198  -17.13552  -17.83017
       O    10.06565  -17.65305  -18.24070
      H1     9.58468  -16.98238  -18.75799
       H    12.31411  -15.60081  -16.31161
       O    12.29630  -16.53241  -16.64769
      H1    11.84942  -17.03940  -15.91952
       H    11.47467   -9.65272  -14.46595
       O    10.88296   -8.98341  -14.16299
      H1    11.37126   -8.52964  -13.46917
       H    14.01420  -11.78778  -17.06141
       O    14.98380  -11.75512  -17.28683
      H1    15.01902  -12.55032  -17.87082
       H    13.17745   -7.48700  -11.22889
       O    12.29732   -7.62936  -11.54704
      H1    12.20543   -8.56753  -11.37923
       H    10.98085  -13.12624  -10.62965
       O    10.58689  -12.96616  -11.54710
      H1    10.96474  -13.65379  -12.10313
       H    16.83011  -13.47220  -15.50920
       O    15.95442  -13.80717  -15.83785
      H1    15.62230  -12.93670  -16.18694
       H     9.03866  -12.20580  -11.01534
       O     8.14428  -11.83494  -10.84700
      H1     8.18448  -10.93232  -11.25367

