90
frame 1 | Written by MDAnalysis XYZWriter (release 2.4.3)
       H   -17.64870   -7.85116   -3.07822
       O   -17.01435   -7.14968   -3.24150
      H1   -16.24760   -7.74057   -3.49080
       H   -18.58093   -7.58335  -13.35515
       O   -18.14145   -6.74014  -13.46055
      H1   -17.44546   -7.01378  -14.16122
       H   -14.59620  -13.12053   -8.57003
       O   -15.45025  -13.09797   -8.09689
      H1   -15.45185  -14.08046   -7.95800
       H   -14.69012   -4.79867   -7.55742
       O   -14.97667   -4.52966   -6.64351
      H1   -15.17878   -3.64372   -6.82368
       H   -19.50673  -11.72539   -7.02987
       O   -18.64383  -11.56167   -6.54681
      H1   -18.18651  -12.41750   -6.71781
       H   -16.54779   -7.05097   -9.34844
       O   -16.43834   -7.52242  -10.17491
      H1   -16.45187   -8.50508   -9.98142
       H   -17.90857   -9.01119   -4.83829
       O   -18.76392   -8.97272   -4.30848
      H1   -19.37806   -9.44633   -4.88038
       H   -16.39602   -5.66666   -7.11615
       O   -16.90706   -6.22448   -7.78651
      H1   -17.66252   -6.44602   -7.24998
       H   -16.08774  -12.56313  -12.96490
       O   -15.66649  -12.97442  -12.15503
      H1   -14.74824  -13.21146  -12.41044
       H   -18.04858   -3.77729  -11.74144
       O   -18.02847   -3.70514  -10.76207
      H1   -18.00658   -4.69301  -10.62310
       H   -19.31324  -13.61224   -4.19032
       O   -19.06405  -12.79644   -3.65097
      H1   -18.72139  -12.25339   -4.37351
       H   -16.34833   -9.61480  -12.73465
       O   -15.49871   -9.11094  -12.89765
      H1   -15.49862   -8.35933  -12.23087
       H   -15.58152  -10.73426   -9.76828
       O   -15.97078  -10.01078   -9.24561
      H1   -15.13426   -9.72351   -8.83289
       H   -14.56174  -11.66188  -11.41815
       O   -14.03105  -10.89407  -11.37024
      H1   -14.64246  -10.16245  -11.71802
       H   -18.60954  -15.01800   -6.37851
       O   -17.85365  -14.52107   -6.69545
      H1   -17.16897  -15.17763   -6.71253
       H   -18.74697  -11.91016   -9.73021
       O   -19.23479  -11.12669  -10.07153
      H1   -19.19817  -10.40408   -9.41160
       H   -19.76663   -8.59502   -7.58840
       O   -19.54338   -8.63706   -8.57417
      H1   -19.07359   -7.83879   -8.68542
       H   -17.92631  -14.00518   -8.61776
       O   -17.75065  -13.26075   -9.21345
      H1   -16.91227  -12.95541   -8.74545
       H   -19.63546   -6.12416   -6.14787
       O   -19.07935   -6.90765   -6.29671
      H1   -19.12821   -7.40040   -5.45580
       H   -18.47545  -10.68398  -13.18062
       O   -18.00063  -10.30136  -12.45347
      H1   -18.42428  -10.78110  -11.72880
       H   -16.97811  -14.69348  -11.96425
       O   -17.67262  -14.95111  -11.35855
      H1   -17.67230  -14.17854  -10.74367
       H   -13.71817   -7.60825   -6.74691
       O   -13.81809   -8.16311   -7.56173
      H1   -12.87135   -8.34551   -7.74399
       H   -14.83909  -10.52598   -6.44021
       O   -14.09293  -10.84439   -5.97580
      H1   -14.14754  -10.16465   -5.24835
       H   -17.41703  -10.43580   -6.50703
       O   -16.83181   -9.68260   -6.51688
      H1   -17.07026   -9.03519   -7.18036
       H   -17.40411   -5.34396   -3.54356
       O   -17.64362   -4.45088   -3.81394
      H1   -16.93839   -3.95088   -3.37125
       H   -14.20096   -6.17169   -9.86961
       O   -13.88156   -5.69355   -9.06094
      H1   -14.09642   -6.42931   -8.45168
       H   -15.50857   -9.96407   -3.51882
       O   -15.42629   -9.19665   -4.06581
      H1   -15.92550   -9.38621   -4.82527
       H   -15.16171   -6.96885  -11.08949
       O   -14.39404   -6.77923  -11.64915
      H1   -14.72974   -5.96528  -12.07704
       H   -16.43590  -13.96207   -5.49404
       O   -15.85845  -13.56082   -4.81962
      H1   -15.37210  -12.98477   -5.41557
       H   -19.47942   -6.58101  -11.00502
       O   -18.88292   -6.43629  -10.26776
      H1   -18.04879   -6.74263  -10.58209

