90
frame 1 | Written by MDAnalysis XYZWriter (release 2.4.3)
       H   -12.71404    6.97439   14.83104
       O   -12.09603    6.86597   15.59432
      H1   -11.82877    7.75254   15.83917
       H   -15.90037    3.74083   19.45651
       O   -15.90213    2.82144   19.13364
      H1   -16.39816    2.77944   18.28625
       H   -17.05557   15.51764   17.36732
       O   -16.66077   16.33696   17.12132
      H1   -17.06287   16.91239   17.77755
       H   -17.72356    3.48008   16.52321
       O   -17.05232    2.80786   16.68600
      H1   -16.26110    3.38204   16.58962
       H   -13.63842   15.75863   16.94546
       O   -13.63040   15.01014   16.34681
      H1   -14.21564   14.37004   16.78794
       H   -13.16666    8.96506   12.74753
       O   -13.64214    9.69231   13.20617
      H1   -12.88229   10.03883   13.69408
       H    -9.79440    4.72309   17.95446
       O   -10.82273    4.79433   18.12852
      H1   -10.93616    4.48519   19.04336
       H   -14.83727    7.73673   13.74495
       O   -14.27449    6.94035   13.48478
      H1   -14.66005    6.69689   12.59256
       H   -14.20457    3.23845   16.39743
       O   -14.84075    3.95224   16.18252
      H1   -14.35510    4.65519   16.64186
       H   -18.52138    6.46738   17.90197
       O   -17.63499    6.51700   17.57344
      H1   -17.50980    7.39467   17.18902
       H   -15.18867    9.43665   13.85736
       O   -15.94025    8.96804   14.34647
      H1   -16.71567    9.40832   13.94982
       H   -13.39432    8.58774   19.03020
       O   -12.43415    8.43147   18.83257
      H1   -12.40779    7.62273   18.29186
       H   -14.50345    1.76516   19.03111
       O   -13.89498    1.01916   18.92365
      H1   -14.51717    0.32012   19.28818
       H   -11.16471   10.41831   14.85739
       O   -11.26128   10.60133   13.90640
      H1   -10.85633    9.83610   13.44940
       H    -8.24013   10.02667   18.21432
       O    -8.33371    9.59442   17.36326
      H1    -7.71059   10.12142   16.84121
       H   -17.90690   14.04214   18.92646
       O   -18.23741   14.96923   19.01348
      H1   -17.76941   15.26748   19.81622
       H   -10.05589    7.62261   19.01372
       O    -9.84979    8.21538   19.75004
      H1    -8.87451    8.02372   19.80603
       H   -17.64999    5.32079   14.93117
       O   -18.54818    5.15004   15.24040
      H1   -18.62027    5.72656   16.00097
       H   -14.69656   12.62327   18.70876
       O   -15.01959   13.46611   18.39680
      H1   -15.63422   13.79922   19.06675
       H   -18.54522    9.75666   12.18739
       O   -18.32884    9.77371   13.13918
      H1   -18.74288    9.06428   13.55276
       H   -20.10995    9.61710   16.47046
       O   -19.66056    9.97247   17.23960
      H1   -18.73264    9.87747   16.94932
       H   -15.33996    8.72649   19.73952
       O   -15.02192    8.73967   18.83557
      H1   -14.97317    7.78937   18.67224
       H   -15.41610    5.55140   13.62770
       O   -16.06375    4.96392   14.07411
      H1   -15.51491    4.53094   14.73210
       H   -16.15456   12.66607   12.79590
       O   -16.07605   12.71908   13.75886
      H1   -17.00049   12.66024   14.03085
       H   -13.39353    5.37655   18.31641
       O   -13.61923    6.00066   17.64718
      H1   -12.88910    6.09883   16.97546
       H   -10.22343    9.77117   16.83928
       O   -11.04328    9.46255   16.48284
      H1   -11.57698    9.44411   17.28748
       H   -18.58422   11.43490   14.39510
       O   -18.37223   12.19825   14.89412
      H1   -19.06200   12.89586   14.66174
       H   -16.93654   12.62931   17.65957
       O   -17.94136   12.59752   17.70817
      H1   -18.27719   12.32897   16.85321
       H    -9.63514   14.96287   19.00492
       O   -10.34361   14.30549   19.40412
      H1   -10.99089   14.35561   18.70072
       H   -16.80284    9.09519   15.93306
       O   -17.16764    9.15989   16.84132
      H1   -16.35142    9.03493   17.36567

