90
frame 1 | Written by MDAnalysis XYZWriter (release 2.4.3)
       H   -14.69875   -3.57430   -3.46350
       O   -15.41750   -3.01116   -3.04272
      H1   -15.23323   -3.25694   -2.08726
       H   -14.45174    1.09100    2.42425
       O   -14.20368    1.52683    3.23426
      H1   -14.73607    2.30517    3.31847
       H   -14.98201    1.66623    0.01696
       O   -15.21135    0.74067   -0.02911
      H1   -16.03406    0.74449    0.49287
       H   -14.92112   -0.01592   -1.87762
       O   -15.01875   -0.36246   -2.81266
      H1   -15.39356   -1.22041   -2.61521
       H   -10.75951    1.99830    2.08375
       O   -11.14762    2.19193    2.98327
      H1   -12.09934    2.01662    2.73446
       H   -13.96349   -4.00829   -0.16919
       O   -13.00236   -4.27781   -0.21021
      H1   -12.92331   -4.95209    0.51268
       H   -18.19305   -2.43070    4.57220
       O   -18.57890   -2.87233    3.77142
      H1   -19.07908   -2.14495    3.38045
       H   -15.19114   -0.28161   -4.77751
       O   -15.10031   -0.36430   -5.74082
      H1   -14.17252   -0.71077   -5.91096
       H   -13.31800   -0.10066    0.31539
       O   -13.16821   -1.04214    0.10763
      H1   -12.33652   -1.01452   -0.36499
       H   -17.89516    0.02046    1.47172
       O   -17.26222    0.28743    2.18453
      H1   -16.82465   -0.56553    2.29715
       H   -16.12071   -4.59541   -0.11725
       O   -15.79463   -3.69061   -0.35194
      H1   -15.59481   -3.15955    0.44859
       H   -14.86258   -1.27018    1.20886
       O   -15.44389   -2.00660    1.59304
      H1   -14.97682   -2.34109    2.40603
       H   -17.92220    2.57215    1.81691
       O   -18.14386    3.28886    1.20738
      H1   -18.16060    2.94014    0.30349
       H   -18.68100   -1.48604   -1.04234
       O   -17.80394   -1.37744   -1.30354
      H1   -17.43077   -2.11964   -0.79383
       H   -16.08224    4.20570    0.95629
       O   -15.15415    4.05719    0.89565
      H1   -14.79551    4.93158    0.81982
       H   -19.03063    0.26203    5.49232
       O   -18.83728    0.94471    4.82055
      H1   -17.87918    0.79800    4.73227
       H   -12.57100    1.86056   -1.54719
       O   -12.58189    1.93247   -0.61462
      H1   -11.65612    1.73981   -0.37233
       H   -16.19047    3.97497    3.86796
       O   -15.27651    3.99370    3.55607
      H1   -15.33616    4.11934    2.56135
       H   -12.40592   -2.13013    3.13171
       O   -11.73359   -1.70211    2.53246
      H1   -12.21083   -1.59063    1.73579
       H   -15.98151    1.50746   -3.09682
       O   -16.21070    2.41820   -2.99844
      H1   -17.13464    2.53605   -3.04997
       H   -17.65192   -0.79420   -4.92449
       O   -17.65071   -0.11583   -4.22971
      H1   -17.13242   -0.52080   -3.50666
       H   -19.42800    2.18127   -4.04393
       O   -19.87155    1.33041   -4.14970
      H1   -19.16711    0.70021   -4.09000
       H   -13.90001   -2.14648    4.82341
       O   -14.00794   -2.59602    3.99033
      H1   -14.37900   -3.46549    4.41227
       H   -12.62697    3.51436   -1.16606
       O   -12.50493    4.38015   -1.49894
      H1   -12.98004    4.39332   -2.30812
       H   -12.13271   -2.09653   -2.97028
       O   -12.35147   -1.46306   -3.72374
      H1   -13.27371   -1.29055   -3.41314
       H   -15.60292    4.42160   -0.88643
       O   -16.10854    4.87210   -1.59169
      H1   -15.92904    4.12346   -2.16007
       H   -17.79865    0.38219   -0.90308
       O   -18.25839    1.04706   -0.36726
      H1   -19.17566    0.80403   -0.43480
       H   -18.89559    3.93609   -2.53241
       O   -18.45217    3.92874   -3.34083
      H1   -18.32884    4.93319   -3.40173
       H   -17.78139    3.49020    5.39933
       O   -17.82587    3.78401    4.46561
      H1   -18.22780    4.61956    4.52568
       H   -15.41083    0.54260    4.29861
       O   -16.13062    0.45157    5.05535
      H1   -15.81437    1.12649    5.69526

