90
frame 1 | Written by MDAnalysis XYZWriter (release 2.4.3)
       H     6.09292    3.28297   17.25602
       O     5.91055    4.25395   17.31433
      H1     5.51577    4.34803   18.22696
       H     6.47399   13.08947   15.16967
       O     6.31113   12.25839   14.73551
      H1     7.19143   11.93916   14.46692
       H     4.68003    4.11798   12.78900
       O     4.75749    3.54766   12.00127
      H1     4.21283    2.77941   12.33875
       H     4.92069    8.64336   14.33197
       O     4.55671    8.06049   15.02548
      H1     4.59000    7.24611   14.47683
       H     6.76502    4.01478   11.10166
       O     7.55979    3.74511   11.52735
      H1     7.70907    2.86398   11.15439
       H     2.37241    9.50656   13.10148
       O     3.14245   10.08061   12.94236
      H1     3.12897   10.67181   13.67134
       H     3.44718   10.17947   17.77205
       O     4.06033   10.95746   17.62227
      H1     3.79907   11.34116   16.74399
       H     4.69435    4.33958   10.39335
       O     4.78112    4.65288    9.47378
      H1     4.17397    4.09937    8.90742
       H     3.89828    8.18689    9.88174
       O     3.96647    9.05224   10.34093
      H1     3.87485    8.72814   11.25115
       H     3.23375    6.22030   11.69491
       O     3.48222    6.82025   12.37330
      H1     2.69336    7.23144   12.70625
       H     0.91945    5.49039   10.93086
       O     1.75219    4.98577   10.70418
      H1     2.00730    4.57564   11.51218
       H     4.36157    5.15634   15.75006
       O     3.47612    5.04762   16.14221
      H1     3.61892    4.81655   17.09484
       H     0.17996    7.07254   15.93058
       O    -0.12825    7.32890   15.07310
      H1    -0.98054    6.90978   15.22746
       H     7.33498    8.34832   12.65539
       O     7.40829    7.39767   12.57063
      H1     8.35092    7.35805   12.85382
       H     1.26455   11.23919   15.39692
       O     0.56434   10.57007   15.28748
      H1     0.90261    9.75707   15.67879
       H     0.55498    5.67492   15.08855
       O     0.94140    4.81353   15.36241
      H1     1.79009    5.09952   15.74462
       H     3.62623    6.64219   18.68064
       O     2.69473    6.81862   18.48345
      H1     2.38209    6.94383   19.34226
       H     7.18282    9.03409    9.40888
       O     6.30429    9.26253    9.16029
      H1     5.73282    9.01715    9.99124
       H     2.41187    8.13751   17.33131
       O     2.38323    8.78601   16.62869
      H1     3.15874    8.50624   16.07961
       H     2.67659    2.00144   16.63130
       O     3.47679    2.44053   16.85550
      H1     3.62560    3.12093   16.17979
       H     8.59941    8.35055   14.60002
       O     7.99448    8.72307   15.29913
      H1     7.15605    8.47620   14.94781
       H    10.05019    4.14755   15.15355
       O    10.38911    4.98791   15.44119
      H1     9.54848    5.41735   15.57061
       H     2.91224   12.62557   16.17787
       O     2.99149   11.98099   15.48912
      H1     3.25491   12.56956   14.79969
       H     0.35204    8.48517   12.11992
       O     0.98876    8.32216   12.79068
      H1     0.42774    8.00739   13.51194
       H     8.38082    7.55128    9.30986
       O     8.57933    8.02967   10.13417
      H1     8.05435    7.55920   10.84506
       H     6.51614    4.75856   14.35518
       O     5.87072    5.44362   14.20834
      H1     6.29590    6.00882   13.51435
       H     5.26517    9.60462   12.89317
       O     6.01935    9.75393   13.42350
      H1     5.94055   10.74494   13.59820
       H     2.30979    2.48923   13.33215
       O     1.95533    3.30897   13.07919
      H1     1.29634    3.51737   13.73643
       H     7.10910    7.05812   16.93832
       O     7.83863    6.63033   17.43721
      H1     7.39186    5.75894   17.60360
       H    10.41398    8.15708   18.32876
       O     9.95943    8.64337   17.64073
      H1     9.09477    8.21030   17.46232

