90
frame 1 | Written by MDAnalysis XYZWriter (release 2.4.3)
       H    -4.74360   16.19759   -5.29584
       O    -3.93174   16.47608   -4.82744
      H1    -3.94077   15.85784   -3.98748
       H    -4.13545   18.68334    3.12458
       O    -3.56401   17.90434    3.28861
      H1    -2.87945   18.09499    2.57684
       H   -12.79679   18.54572   -3.82243
       O   -12.33206   17.68809   -3.61989
      H1   -12.05849   17.85249   -2.64606
       H    -6.72177   16.98584   -6.28083
       O    -6.48783   16.27123   -5.69742
      H1    -7.12452   15.55338   -5.70176
       H    -5.94930   17.58864   -0.85573
       O    -5.97211   18.49817   -0.40757
      H1    -5.53419   19.05346   -1.12663
       H    -7.10652   16.06623    1.49949
       O    -6.20583   16.29460    1.72591
      H1    -6.20564   17.23499    1.50149
       H    -2.87626   15.72063   -0.27079
       O    -2.10798   16.10432   -0.75429
      H1    -2.51765   16.13518   -1.66783
       H   -13.57058   18.87165    3.07099
       O   -13.15066   18.11769    2.61844
      H1   -12.25160   18.46736    2.37566
       H    -7.24890   15.29580   -0.79289
       O    -6.49626   15.72529   -1.23123
      H1    -6.91884   15.95852   -2.06527
       H    -3.97313   18.90238   -3.95960
       O    -3.35456   19.57214   -3.70992
      H1    -3.83171   19.95141   -2.95043
       H   -11.65922   13.80526   -3.09870
       O   -10.72181   13.92821   -2.78134
      H1   -10.36022   13.01490   -2.76676
       H    -8.91542   14.69712    3.59900
       O    -8.38379   14.14895    2.92740
      H1    -7.61126   13.92090    3.44887
       H    -5.33653   14.96243   -2.06018
       O    -4.62607   14.71235   -2.72991
      H1    -4.22211   14.06886   -2.11797
       H   -13.89658   18.50229    1.08852
       O   -14.29511   18.68971    0.19957
      H1   -14.06834   19.63056    0.18110
       H   -11.23968   17.04435   -6.96431
       O   -10.29570   17.16170   -6.93751
      H1   -10.04784   17.20285   -5.99358
       H    -9.40565   19.79914   -1.14791
       O    -9.30526   19.07731   -0.51996
      H1    -8.35013   19.08245   -0.56362
       H    -8.98592   14.43770   -4.33806
       O    -8.17375   14.12966   -4.73771
      H1    -8.11797   13.35081   -4.15901
       H   -12.68339   15.17490    3.07720
       O   -12.24464   15.66701    3.79103
      H1   -12.43533   16.55537    3.61995
       H   -12.26937   19.00311   -6.06283
       O   -11.93720   19.90221   -6.38021
      H1   -11.09504   19.96323   -5.83883
       H   -10.50825   15.47072   -3.64781
       O   -10.07230   16.27060   -3.93711
      H1   -10.70351   16.98495   -3.82481
       H    -5.13708   14.14648    4.15855
       O    -6.02720   14.62811    4.20686
      H1    -6.05395   15.12002    3.38720
       H    -9.60231   15.90484    5.52691
       O    -9.75682   16.19574    4.58002
      H1   -10.69388   16.00479    4.49563
       H   -10.70310   14.92004   -1.34967
       O   -11.09098   15.03729   -0.42920
      H1   -11.44242   15.99995   -0.58513
       H   -10.06177   19.30265    1.35205
       O   -10.48408   19.28315    2.17968
      H1    -9.68445   19.27535    2.74320
       H    -5.16578   15.11178    0.75257
       O    -4.28617   14.63305    0.58848
      H1    -4.59574   13.79598    0.18465
       H    -7.86286   18.58004    4.83097
       O    -8.54026   18.74364    4.15578
      H1    -8.94523   17.82402    4.02092
       H   -10.30137   18.67285    5.10635
       O   -11.01824   19.31505    5.19251
      H1   -11.79336   18.83283    5.50593
       H    -9.57411   15.24591    0.34090
       O    -8.61508   15.27365    0.49559
      H1    -8.58117   14.80510    1.35698
       H   -13.45352   15.29530    0.64361
       O   -13.13197   14.57114    1.18107
      H1   -12.22330   14.54336    0.84429
       H   -12.79806   17.98049   -0.57257
       O   -12.05918   17.48166   -0.83582
      H1   -11.39019   18.10028   -0.34866

