90
frame 3 | Written by MDAnalysis XYZWriter (release 2.4.3)
       H    -5.54233   -8.00578   -2.31978
       O    -5.04007   -8.09945   -1.48293
      H1    -4.90725   -7.22011   -1.13018
       H    -4.71053   -2.72493   -7.09226
       O    -4.04855   -2.08798   -7.48896
      H1    -4.42061   -1.55498   -8.18887
       H    -4.29121   -0.78441   -5.77694
       O    -4.75446   -0.25240   -5.10741
      H1    -4.09412    0.39577   -4.91838
       H    -9.20332   -1.42752   -8.70592
       O    -9.36814   -1.96777   -9.45580
      H1    -8.61574   -1.96609  -10.05896
       H    -3.14971   -5.54259   -5.83314
       O    -4.06323   -5.67227   -6.05901
      H1    -4.18996   -5.99889   -6.97898
       H    -5.26162   -2.11873   -2.76887
       O    -4.29810   -2.34427   -2.51748
      H1    -3.81593   -1.87517   -3.25411
       H   -13.48993   -3.78210   -1.05401
       O   -12.82998   -3.08453   -1.32554
      H1   -12.53072   -2.66017   -0.54287
       H    -8.96533   -6.03710   -4.31629
       O    -8.69865   -5.72649   -3.39663
      H1    -9.62003   -5.36489   -3.12056
       H    -6.35447   -4.48353   -9.09701
       O    -6.83232   -4.93377   -8.37548
      H1    -7.12347   -5.74028   -8.76894
       H    -8.16765   -4.04051   -4.09150
       O    -8.03966   -3.30311   -4.71233
      H1    -7.19306   -3.42500   -5.17637
       H   -10.15007   -5.38702   -6.41955
       O    -9.68461   -6.13487   -6.02006
      H1    -9.72936   -6.86432   -6.63116
       H    -8.98718   -5.75184   -0.07602
       O    -8.79777   -4.94849    0.39621
      H1    -7.86603   -4.94802    0.54288
       H   -13.11768   -6.40664   -7.77398
       O   -12.92262   -6.78636   -6.91472
      H1   -12.45805   -6.05617   -6.42022
       H    -4.82601   -1.73026   -0.74630
       O    -4.91741   -1.30747    0.09678
      H1    -5.85065   -1.51208    0.44701
       H   -11.36939   -8.64741   -4.12372
       O   -11.27623   -7.86790   -3.57232
      H1   -10.89790   -7.22140   -4.16226
       H    -7.23300   -0.15019   -2.00812
       O    -7.14418    0.74100   -1.70427
      H1    -7.82433    0.85321   -1.01128
       H   -11.76293   -4.92744   -3.72954
       O   -11.43468   -5.11922   -2.85526
      H1   -11.75277   -4.33298   -2.31649
       H    -6.87658   -7.11254   -3.63095
       O    -6.26471   -7.82956   -3.80462
      H1    -6.78479   -8.53563   -4.14451
       H    -8.09295   -8.20226   -0.81412
       O    -7.46923   -7.82582   -0.16082
      H1    -6.62766   -7.96353   -0.56822
       H    -4.95968   -5.34965   -4.23184
       O    -5.00179   -5.08975   -3.29859
      H1    -5.01316   -4.13329   -3.29378
       H    -8.53040   -0.33740   -6.64773
       O    -9.39725   -0.43111   -7.07384
      H1    -9.83419   -1.16953   -6.56511
       H    -6.08972   -1.12713   -3.89691
       O    -6.76143   -1.58223   -3.37991
      H1    -7.17979   -2.22716   -3.94387
       H    -8.61045   -9.23648   -2.33158
       O    -9.32989   -8.85894   -1.80136
      H1   -10.01289   -8.38829   -2.34372
       H    -8.22544   -1.99955    0.08814
       O    -7.70086   -1.59695    0.80111
      H1    -8.18170   -1.85931    1.61759
       H    -9.46337   -3.08161   -6.34030
       O   -10.39121   -3.04379   -6.64820
      H1   -10.35749   -2.84202   -7.58642
       H    -3.54821   -5.18650   -0.32358
       O    -4.45550   -5.55902   -0.52736
      H1    -4.51035   -5.38239   -1.47180
       H    -9.78010   -2.27256   -0.89419
       O    -9.05164   -2.79503   -1.17937
      H1    -9.06992   -3.51237   -0.59350
       H   -13.27343   -4.32978   -5.62140
       O   -12.37938   -4.37187   -5.27148
      H1   -11.95042   -3.58114   -5.55269
       H    -5.17003   -4.38839   -6.22884
       O    -5.74381   -3.62766   -6.24880
      H1    -6.41726   -3.94427   -6.88167
       H    -6.42176   -5.93369    1.90251
       O    -6.31898   -5.04671    1.46582
      H1    -5.71075   -5.17708    0.77377

