90
frame 1 | Written by MDAnalysis XYZWriter (release 2.4.3)
       H     4.68315    0.80507  -13.31982
       O     4.04883    0.49255  -12.63595
      H1     3.77901    1.35979  -12.19806
       H     6.35666   -6.56258  -11.40083
       O     7.26752   -6.32374  -11.74761
      H1     7.05179   -5.70043  -12.46352
       H     9.82167   -2.37052  -13.61783
       O     8.91788   -2.27430  -13.32636
      H1     8.46268   -1.78426  -14.04222
       H     4.54660   -2.93950   -9.23838
       O     4.07158   -3.51773   -8.60657
      H1     3.75947   -2.85823   -7.97112
       H     6.37378    2.41898  -13.92956
       O     6.26945    1.46236  -14.01713
      H1     6.50373    1.14160  -13.14454
       H     7.55079    0.05332  -15.03598
       O     8.30695   -0.08849  -15.62256
      H1     9.03801    0.40884  -15.16295
       H     0.72438   -2.59236  -12.67530
       O     0.60599   -3.00698  -11.77008
      H1     1.12537   -3.76557  -11.88317
       H     1.39876    1.48417  -13.68441
       O     1.76288    1.58490  -14.60958
      H1     2.14776    2.44426  -14.51135
       H     0.88865   -1.76861   -8.53957
       O     0.67668   -1.33661   -9.34056
      H1     0.51212   -1.95272  -10.05201
       H     3.03261   -4.10139   -9.67526
       O     2.24393   -4.57288  -10.06951
      H1     1.66935   -4.59539   -9.28991
       H     4.07336   -4.59408  -14.86965
       O     4.21194   -5.43747  -15.23590
      H1     5.17680   -5.49639  -15.26415
       H     2.18151   -6.14572  -10.79862
       O     2.16801   -7.01544  -11.21573
      H1     2.63967   -6.83001  -12.05532
       H     2.60853   -0.23796  -17.34864
       O     3.19698    0.36996  -16.91083
      H1     2.53872    0.78923  -16.25917
       H     2.42580   -2.16622  -11.48508
       O     3.25878   -1.98056  -11.97023
      H1     3.17091   -1.03071  -12.08928
       H     5.91675   -2.71160  -10.63306
       O     5.42576   -1.88881  -10.47181
      H1     4.62674   -2.09172  -11.04630
       H    -1.10283   -4.08560  -12.03110
       O    -1.74429   -4.52522  -12.65075
      H1    -1.40883   -5.45132  -12.56347
       H     9.20500   -4.60158  -15.76738
       O     8.71882   -4.02930  -16.46858
      H1     7.89987   -4.60378  -16.64758
       H     3.95448   -2.69539  -13.58026
       O     4.32785   -2.89030  -14.41753
      H1     4.69349   -2.05129  -14.77934
       H     7.18357   -5.11341  -10.45723
       O     6.94109   -4.21228  -10.11330
      H1     6.81409   -4.41169   -9.14316
       H     6.55933    1.82976  -10.99447
       O     6.78909    1.07673  -11.56429
      H1     6.14282    0.35816  -11.33434
       H     5.90542   -1.37090  -18.65891
       O     5.59112   -2.19960  -18.20219
      H1     6.23277   -2.90554  -18.50974
       H     6.62632   -3.99157  -14.11839
       O     7.22204   -4.52513  -13.57225
      H1     7.92867   -3.83050  -13.48711
       H     6.53548   -7.16547  -16.67923
       O     6.50107   -6.29701  -17.00832
      H1     5.63691   -6.23891  -17.49666
       H     5.02824   -6.97796   -9.89051
       O     5.16956   -7.63270  -10.59206
      H1     4.44927   -7.59002  -11.22886
       H     2.61481   -0.28085   -9.01155
       O     3.25545    0.45211   -8.90291
      H1     3.85581   -0.01725   -8.25718
       H     4.08669   -6.94521  -13.80112
       O     3.91923   -7.68156  -13.15969
      H1     3.20435   -8.19554  -13.61437
       H     4.73583   -0.34194  -16.46283
       O     5.45378   -0.76038  -15.89479
      H1     5.82861   -1.35196  -16.57123
       H     0.40365    0.44679  -16.54957
       O     0.22259   -0.50077  -16.72414
      H1    -0.32887   -0.31906  -17.53776
       H     1.21122   -4.79737  -16.87233
       O     0.75648   -4.77847  -16.03036
      H1     0.04612   -4.11471  -16.16869
       H     1.25155   -3.16561  -14.91612
       O     0.83656   -2.37831  -14.50503
      H1     0.76314   -1.74022  -15.30064

