90
frame 1 | Written by MDAnalysis XYZWriter (release 2.4.3)
       H    -5.49474   -9.94149   19.04875
       O    -6.07305  -10.64853   18.71801
      H1    -5.52640  -11.47313   18.82918
       H    -1.11106   -8.58534   15.63685
       O    -1.48377   -7.64774   15.81661
      H1    -0.77739   -7.09760   15.36340
       H    -2.70526    0.43807   16.71000
       O    -1.92668   -0.09599   16.91138
      H1    -1.77871    0.10809   17.86339
       H    -6.72942   -5.47682   16.48427
       O    -6.37151   -4.67355   16.05802
      H1    -7.13174   -4.42404   15.53837
       H     1.32868   -0.76770   17.42440
       O     1.22479   -1.52575   16.83891
      H1     0.97374   -2.16897   17.56004
       H    -2.60850   -4.52103   11.65218
       O    -2.39609   -3.97922   10.84076
      H1    -1.84891   -4.57596   10.28725
       H    -6.53341   -4.21641   12.64595
       O    -6.67323   -3.33138   12.22005
      H1    -6.21268   -3.27536   11.41133
       H    -3.07271   -8.75039   15.92609
       O    -3.71003   -9.47401   15.74641
      H1    -4.49031   -9.07963   16.18498
       H    -7.34429   -4.82854   18.85322
       O    -6.45483   -4.68931   19.16318
      H1    -6.57641   -5.03608   20.07181
       H     1.13062   -6.47126   17.39149
       O     2.02060   -6.84033   17.27074
      H1     1.90598   -7.52154   16.52294
       H    -4.38413   -7.59924   19.01789
       O    -5.02149   -8.22520   19.36905
      H1    -5.60494   -7.54713   19.84299
       H    -7.16011   -7.90270   16.41963
       O    -7.53694   -6.97618   16.31440
      H1    -8.14851   -7.08531   15.48531
       H    -6.61912   -9.87288   17.25450
       O    -6.39733   -9.56851   16.30947
      H1    -6.73286  -10.39809   15.85490
       H    -2.92454   -1.71493   17.43886
       O    -3.38793   -2.38880   17.91119
      H1    -3.51844   -3.09531   17.20284
       H    -6.39987   -2.88342   16.55390
       O    -6.08178   -2.01594   16.73237
      H1    -5.37985   -2.36425   17.36793
       H    -0.42205   -2.83110   13.68806
       O    -1.03128   -3.48514   13.94610
      H1    -1.87615   -3.12813   13.65722
       H    -6.34063   -5.82928   14.41357
       O    -6.23808   -5.85305   13.44950
      H1    -6.74662   -6.68574   13.23197
       H    -5.48308   -1.60214   13.75280
       O    -5.05271   -1.12272   14.50081
      H1    -5.40060   -1.51694   15.35699
       H    -0.37803   -4.81646   17.80806
       O    -0.07689   -5.58998   18.30640
      H1    -0.98284   -5.99726   18.45874
       H    -0.41576   -3.36990   20.08352
       O    -0.31993   -2.64281   19.52878
      H1    -1.00854   -2.67698   18.85245
       H    -1.25283   -3.29069   16.19554
       O    -0.51367   -3.45287   16.75886
      H1     0.19714   -3.03900   16.28035
       H     1.41027   -5.89762   14.44060
       O     0.45400   -6.09578   14.41267
      H1     0.20735   -5.16375   14.41960
       H    -3.55949   -8.60215   12.49699
       O    -4.07094   -9.29550   12.99722
      H1    -3.76411   -9.03273   13.93408
       H    -3.33790   -5.70745   19.86712
       O    -3.28651   -6.22257   19.03597
      H1    -2.67468   -6.96354   19.36551
       H    -2.75186   -0.45915   12.69131
       O    -2.56558   -0.65841   13.62340
      H1    -3.49330   -0.79463   13.96260
       H    -1.48311   -8.51746   20.12183
       O    -1.63141   -8.52560   19.17164
      H1    -0.77828   -8.74211   18.76345
       H    -3.10414   -5.02278   14.11917
       O    -3.30912   -5.54580   13.35539
      H1    -4.33136   -5.53207   13.38574
       H     1.57549   -4.79035   18.18633
       O     2.13657   -3.97263   18.14359
      H1     3.02306   -4.37038   17.99043
       H    -2.05236   -7.29598   10.88718
       O    -2.62913   -7.59658   11.60260
      H1    -2.68123   -6.88006   12.24904
       H    -3.27506   -5.34327   16.66757
       O    -3.57815   -4.47855   16.27847
      H1    -4.52724   -4.69609   16.29902

