90
frame 1 | Written by MDAnalysis XYZWriter (release 2.4.3)
       H   -17.11401   -0.89127    6.05599
       O   -17.36769   -1.78755    6.01469
      H1   -18.02264   -1.79227    6.72088
       H   -16.95040   -0.28499   11.73553
       O   -16.30989   -0.00538   12.37935
      H1   -16.81983    0.21216   13.19154
       H   -18.69618   -1.94516   14.46483
       O   -18.97947   -2.15358   13.58545
      H1   -18.91392   -3.11047   13.67260
       H   -14.41239   -0.46246    9.92546
       O   -13.92411   -1.30483    9.90038
      H1   -14.51184   -1.79414    9.29569
       H   -18.19305   -2.43070    4.57220
       O   -18.57890   -2.87233    3.77142
      H1   -19.07908   -2.14495    3.38045
       H   -19.31936   -9.49381    6.74674
       O   -18.36095   -9.30339    6.88797
      H1   -18.21585   -8.49513    6.46036
       H   -19.20517   -4.32037    5.42275
       O   -19.03637   -5.08675    5.95257
      H1   -19.13834   -4.75900    6.90272
       H   -18.07662   -8.31097    4.18211
       O   -17.75560   -7.40596    4.30375
      H1   -18.23701   -6.78296    3.71557
       H   -19.31528   -6.36482   11.91375
       O   -18.36922   -6.39169   12.05026
      H1   -18.25496   -7.09563   12.67840
       H   -14.44790   -5.99214   11.14805
       O   -14.35238   -6.70752   10.52129
      H1   -14.02292   -6.31495    9.68612
       H   -17.89516    0.02046    1.47172
       O   -17.26222    0.28743    2.18453
      H1   -16.82465   -0.56553    2.29715
       H   -18.30120   -5.22310   13.73528
       O   -18.41645   -4.71102   14.51931
      H1   -17.84761   -3.94747   14.58197
       H   -15.95726   -5.40076    3.54294
       O   -15.79356   -4.66822    4.09372
      H1   -16.12918   -5.01941    4.95016
       H   -14.71919    1.33272    8.04745
       O   -15.58934    0.98847    7.74282
      H1   -16.09711    1.83205    7.78449
       H   -13.63744   -7.34388    6.77367
       O   -13.59908   -6.83972    7.61105
      H1   -13.56927   -5.90372    7.28145
       H   -18.70327   -4.37938    2.62341
       O   -18.96189   -5.29132    2.35794
      H1   -18.23877   -5.40197    1.78253
       H   -14.83960   -4.05842   13.01666
       O   -14.68156   -4.27405   12.10019
      H1   -13.80865   -3.82891   11.88974
       H   -19.03063    0.26203    5.49232
       O   -18.83728    0.94471    4.82055
      H1   -17.87918    0.79800    4.73227
       H   -12.29852   -3.84436    6.70071
       O   -12.75451   -4.59000    6.39068
      H1   -12.53704   -4.70730    5.46602
       H   -16.28224   -4.49197   10.93318
       O   -16.97199   -4.65587   10.27426
      H1   -17.54297   -5.24497   10.87260
       H   -17.63796    0.89001    8.96407
       O   -17.97030    0.10452    9.37804
      H1   -17.34271   -0.57118    9.07767
       H   -15.56305   -3.53967    8.43421
       O   -16.07924   -2.76373    8.39620
      H1   -15.85973   -2.34295    7.55846
       H   -13.90001   -2.14648    4.82341
       O   -14.00794   -2.59602    3.99033
      H1   -14.37900   -3.46549    4.41227
       H   -19.12298   -3.62092    8.63307
       O   -18.64167   -2.94247    8.12796
      H1   -17.68413   -3.07090    8.46136
       H   -16.77286   -6.04173    9.35505
       O   -16.93451   -6.90079    8.92407
      H1   -16.13933   -7.42786    9.15910
       H   -15.27184   -1.54525    6.07414
       O   -14.37439   -1.50154    6.45319
      H1   -14.33411   -0.54233    6.50782
       H   -16.74603    4.08844    7.20310
       O   -17.18012    3.18245    7.05192
      H1   -18.08048    3.38080    7.29048
       H   -16.35112   -5.91860    7.47165
       O   -16.38765   -5.38624    6.61412
      H1   -17.30682   -5.48899    6.34748
       H   -18.61280   -7.68256    9.44718
       O   -19.54434   -7.80124    9.33978
      H1   -19.60080   -7.92784    8.40500
       H   -15.41083    0.54260    4.29861
       O   -16.13062    0.45157    5.05535
      H1   -15.81437    1.12649    5.69526

