90
frame 1 | Written by MDAnalysis XYZWriter (release 2.4.3)
       H     2.10024  -15.52243  -10.05816
       O     1.20665  -15.21045   -9.94111
      H1     1.17771  -15.21753   -8.96532
       H     2.15569  -13.28227  -11.99512
       O     3.04796  -13.15612  -12.36326
      H1     2.90739  -13.47543  -13.24730
       H     8.68098  -11.83854   -7.30422
       O     7.80244  -12.09608   -7.03515
      H1     7.39171  -11.27205   -7.31843
       H     3.62855  -14.20166  -11.12125
       O     4.07396  -15.02492  -10.83642
      H1     4.25747  -15.43377  -11.67474
       H     3.95477  -12.86431   -8.53905
       O     3.08180  -12.65307   -8.10323
      H1     3.40422  -12.34277   -7.22390
       H     3.45362   -8.00666   -6.71158
       O     3.20204   -7.94961   -7.63293
      H1     3.82772   -8.64005   -7.93930
       H     5.27513   -7.64336   -6.00814
       O     4.47778   -7.56900   -5.33351
      H1     4.58372   -8.42166   -4.83330
       H     2.35875   -9.86181  -11.30578
       O     1.73997   -9.40432  -10.75248
      H1     2.03562   -8.45753  -10.83772
       H     2.54601  -14.50203   -7.34924
       O     2.14438  -15.36273   -7.14886
      H1     1.25185  -15.07259   -6.84662
       H     2.18151   -6.14572  -10.79862
       O     2.16801   -7.01544  -11.21573
      H1     2.63967   -6.83001  -12.05532
       H     5.77839  -13.94250  -11.28517
       O     6.50447  -13.96437  -11.89675
      H1     7.28870  -13.73890  -11.32373
       H     1.46552   -8.04449   -3.57504
       O     1.70679   -7.45130   -4.29783
      H1     1.94645   -8.06674   -5.00640
       H     6.98531  -13.71564   -7.45935
       O     6.78347  -14.44187   -8.01693
      H1     6.46460  -15.07551   -7.40923
       H    -0.52975   -9.51451   -7.12609
       O    -1.48096   -9.63810   -6.96522
      H1    -1.82392   -8.72162   -6.90105
       H     8.87442   -8.40192  -10.32057
       O     7.99816   -8.67172  -10.57578
      H1     7.65116   -7.86019  -10.90473
       H     1.61894   -8.43076   -8.07643
       O     0.73806   -8.84184   -8.18807
      H1     0.67165   -9.21055   -9.03742
       H     5.70336   -8.85914  -13.14604
       O     6.34531   -9.57347  -13.20303
      H1     7.01436   -9.16999  -13.72137
       H     3.53787  -11.26657   -4.85191
       O     3.47923  -12.11742   -5.20004
      H1     2.77121  -12.52345   -4.64352
       H     6.70887  -11.30211  -13.72508
       O     7.14979  -12.15697  -14.02377
      H1     7.02571  -12.67117  -13.17135
       H     4.43856   -6.84472   -8.12375
       O     5.02590   -6.15968   -8.50045
      H1     4.43607   -5.38737   -8.51335
       H     5.02824   -6.97796   -9.89051
       O     5.16956   -7.63270  -10.59206
      H1     4.44927   -7.59002  -11.22886
       H     5.97931  -11.70423   -4.76129
       O     6.85750  -11.98878   -4.61925
      H1     7.23803  -12.02578   -5.50876
       H     4.64093   -9.52419   -9.59706
       O     4.61360  -10.03763   -8.75510
      H1     4.08009  -10.87650   -9.01199
       H     5.96109  -12.01887  -10.26025
       O     5.44187  -12.61661   -9.69281
      H1     6.13418  -13.04332   -9.23940
       H    -0.51545  -10.32197  -13.08992
       O     0.17303  -10.94590  -12.73748
      H1     0.62709  -10.44370  -11.99881
       H     4.08669   -6.94521  -13.80112
       O     3.91923   -7.68156  -13.15969
      H1     3.20435   -8.19554  -13.61437
       H     7.57312   -9.20556   -8.85876
       O     7.18396   -9.47010   -8.00286
      H1     6.32086   -9.79763   -8.34624
       H     7.38208   -8.20213   -6.91090
       O     7.19894   -7.47013   -6.27631
      H1     7.69318   -7.78911   -5.53416
       H     9.03866  -12.20580  -11.01534
       O     8.14428  -11.83494  -10.84700
      H1     8.18448  -10.93232  -11.25367
       H     4.03961  -11.66206  -11.92046
       O     4.19019  -10.84207  -11.48215
      H1     4.75191  -10.26514  -12.03990

