90
frame 1 | Written by MDAnalysis XYZWriter (release 2.4.3)
       H    15.72931   -0.38554   11.21158
       O    16.22025    0.10747   10.52896
      H1    16.66504   -0.64486   10.08708
       H    13.94817    0.09013    7.88659
       O    14.89577    0.10275    7.78508
      H1    15.17780    0.00954    8.67472
       H    18.00324   -9.65379   11.02761
       O    18.80754   -9.28434   11.42661
      H1    18.99264   -8.63655   10.73076
       H    13.74357   -3.04098    3.00651
       O    13.45634   -2.52755    2.22404
      H1    13.13895   -3.20210    1.63416
       H    17.99338   -0.73133    6.48759
       O    18.55928   -0.13668    6.96074
      H1    18.38031   -0.42636    7.88963
       H    13.61155   -5.92853    4.78844
       O    13.00726   -6.24403    5.50677
      H1    12.13843   -6.20919    5.05443
       H    11.49013   -1.01368   11.26663
       O    11.97213   -1.27962   10.49007
      H1    12.75865   -1.70570   10.81126
       H    15.33668   -5.92484    7.16605
       O    15.27256   -5.22430    7.81516
      H1    14.25943   -5.26976    7.93346
       H    15.50225   -5.03619   12.45403
       O    15.72509   -4.84648   11.55588
      H1    16.21861   -4.03437   11.54029
       H    17.69184   -6.74942   13.00350
       O    17.17990   -7.21483   13.70007
      H1    16.51722   -7.53426   13.10686
       H    14.78869   -2.63041   12.21941
       O    14.45609   -2.38850   11.36391
      H1    14.37211   -3.28001   10.94968
       H    17.93864  -10.49954    8.08604
       O    17.60435   -9.94679    7.35358
      H1    16.66481  -10.07629    7.35309
       H    15.75844   -8.15376    5.89740
       O    16.21784   -7.28155    5.90199
      H1    16.88919   -7.54507    5.21529
       H    17.14469   -5.10081    8.27955
       O    18.11033   -5.17196    8.03352
      H1    18.08768   -5.56621    7.12342
       H    11.88142   -8.37217    7.53105
       O    11.91358   -8.47075    6.56841
      H1    12.41780   -7.66830    6.31628
       H    10.78218   -2.72021    9.55192
       O    10.42343   -3.35751    8.91906
      H1    10.01828   -2.70693    8.38843
       H    15.41958   -6.71892    9.05428
       O    15.65615   -7.61432    9.13067
      H1    16.28685   -7.72003    8.44408
       H    16.33827   -1.10657    5.16128
       O    16.41886   -1.46423    6.04331
      H1    15.77567   -0.97124    6.55168
       H    19.55530   -0.75589    9.70979
       O    18.68385   -1.17038    9.60483
      H1    18.83991   -1.98617    9.08632
       H    17.22754   -7.34648    2.95174
       O    17.73189   -7.32424    3.76051
      H1    18.39008   -6.69981    3.72055
       H    17.24805   -5.54759   11.38746
       O    18.16763   -5.87264   11.40172
      H1    18.11958   -6.33014   10.54613
       H    11.28426   -6.09177    9.26461
       O    11.09726   -6.93662    9.72700
      H1    10.12153   -7.11210    9.68513
       H    14.14572   -9.56822   10.09439
       O    14.06659   -9.16666   10.96692
      H1    14.47056   -8.25864   10.81032
       H    18.41236   -2.70497   12.71281
       O    17.42401   -2.81235   12.67469
      H1    17.06972   -2.49926   13.50537
       H    11.62938   -4.23326    7.84972
       O    12.26398   -4.98171    7.74742
      H1    12.37161   -4.88013    6.79463
       H    14.84523   -9.71313    4.33151
       O    15.46805   -9.67102    5.05164
      H1    16.16142  -10.30329    4.87019
       H    14.89986   -4.62775    4.64444
       O    14.94278   -5.30511    3.93815
      H1    15.62097   -5.95359    4.23418
       H    13.45809   -9.91536    7.88042
       O    14.23155  -10.03856    8.43606
      H1    14.54503   -9.15647    8.47819
       H    10.42699   -6.23273    3.95195
       O    10.33308   -5.60578    4.66290
      H1    10.57121   -4.74900    4.18680
       H    14.96413   -2.69749    5.60978
       O    14.34482   -3.46400    5.48380
      H1    14.48296   -3.98094    6.32728

