90
frame 1 | Written by MDAnalysis XYZWriter (release 2.4.3)
       H    14.68805   -3.99157   -5.76697
       O    14.53892   -4.78631   -6.30385
      H1    13.83944   -5.32550   -5.97706
       H    12.97630    2.99414   -6.33591
       O    13.05149    2.20974   -5.78725
      H1    12.83761    1.58972   -6.48716
       H     9.32363   -4.42913   -5.69678
       O     9.26631   -5.10378   -5.02721
      H1     8.54183   -4.75503   -4.47442
       H    14.45293   -1.77101  -11.11344
       O    14.69739   -0.90348  -10.81800
      H1    14.35815   -0.82773   -9.88851
       H     9.44450   -2.06276  -11.46596
       O     9.48344   -2.41277  -10.56579
      H1     8.70102   -3.08394  -10.61954
       H    13.56671   -4.42344   -8.04472
       O    13.24348   -4.14640   -8.97021
      H1    12.46487   -4.75119   -9.01431
       H    16.63153   -0.84051  -10.66548
       O    17.49885   -0.65567  -11.03078
      H1    18.11412   -0.84119  -10.30063
       H    18.42443   -3.56909   -6.32812
       O    18.37192   -4.43448   -6.79940
      H1    17.50562   -4.34569   -7.16764
       H    13.87456   -3.75095  -10.73972
       O    14.03233   -3.35518  -11.61052
      H1    13.10985   -3.18122  -11.91517
       H     7.11223   -5.67401   -7.36790
       O     7.23265   -4.67751   -7.38003
      H1     8.23245   -4.66456   -7.53531
       H     7.57874   -1.76910   -5.28990
       O     7.39553   -1.88186   -6.23296
      H1     6.87008   -2.76062   -6.14776
       H    10.19796    0.98375  -10.94111
       O    10.67138    1.60922  -11.49841
      H1    10.90230    2.32599  -10.85433
       H    17.73403   -0.29320   -6.78894
       O    17.46523   -1.19989   -6.62290
      H1    16.95693   -1.46214   -7.40866
       H     9.02680   -0.63300  -10.20026
       O     9.04042    0.32403  -10.03366
      H1     8.26402    0.51863  -10.56004
       H    14.80318   -0.55244   -7.90675
       O    14.02766   -0.02058   -8.24168
      H1    13.32972   -0.66967   -8.02909
       H    15.93689   -6.20344   -9.17383
       O    16.42969   -5.56391   -8.71098
      H1    17.23273   -5.41695   -9.29250
       H    16.25361    0.97168   -4.75627
       O    16.52230    0.19906   -4.21134
      H1    17.38208    0.62977   -3.91514
       H    10.07154    2.36503   -5.43407
       O     9.23964    2.25489   -5.91333
      H1     9.44173    1.55015   -6.50948
       H    10.02856   -4.47241   -1.98786
       O     9.93300   -3.51023   -2.15303
      H1    10.69650   -3.27649   -2.69938
       H    15.91240   -3.57072   -8.42511
       O    16.38934   -2.68846   -8.73998
      H1    17.18544   -3.18450   -9.11464
       H    12.41945    1.36370  -11.70086
       O    13.29616    1.31282  -12.06632
      H1    13.73543    0.59955  -11.56971
       H    10.50524   -4.58076   -8.88593
       O    10.91501   -5.39797   -9.30019
      H1    10.83608   -5.19480  -10.25160
       H    11.17164   -5.70893   -4.78118
       O    12.02293   -6.08786   -5.18266
      H1    12.55343   -6.07178   -4.38647
       H    13.23164   -2.18164   -2.94425
       O    12.30230   -2.00513   -3.17347
      H1    12.31387   -1.14103   -3.62561
       H    13.38917   -2.31918   -6.84426
       O    12.58941   -2.10408   -7.35231
      H1    12.64575   -2.77309   -8.08652
       H    10.96706   -3.26799   -6.97402
       O    10.04232   -3.45595   -7.34203
      H1     9.70630   -2.55106   -7.56199
       H    12.96738    1.83184   -3.89214
       O    12.67731    1.21982   -3.19726
      H1    11.73845    1.39842   -3.20332
       H    14.98637   -1.90372   -4.62728
       O    15.02538   -2.10563   -5.57219
      H1    15.88815   -1.48430   -5.67240
       H    11.99571    3.64972   -8.66685
       O    12.82473    3.19588   -8.42307
      H1    12.88606    2.38587   -8.97957
       H     9.18251   -0.32033   -8.37302
       O     9.40577   -0.51231   -7.47005
      H1     8.57229   -0.90158   -7.15443

