90
frame 1 | Written by MDAnalysis XYZWriter (release 2.4.3)
       H    13.05862   -8.49632   -7.58323
       O    13.89164   -9.00267   -7.46897
      H1    14.23555   -8.84083   -6.60791
       H    17.12513   -7.02794   -3.70542
       O    16.78977   -6.74831   -2.81120
      H1    17.30446   -5.95068   -2.62311
       H    14.68805   -3.99157   -5.76697
       O    14.53892   -4.78631   -6.30385
      H1    13.83944   -5.32550   -5.97706
       H     9.32363   -4.42913   -5.69678
       O     9.26631   -5.10378   -5.02721
      H1     8.54183   -4.75503   -4.47442
       H    14.45293   -1.77101  -11.11344
       O    14.69739   -0.90348  -10.81800
      H1    14.35815   -0.82773   -9.88851
       H    12.91312   -6.03094   -2.44723
       O    12.67245   -5.11694   -2.48863
      H1    13.52308   -4.65863   -2.45838
       H    12.73405   -9.05615   -4.68567
       O    13.54492   -9.26423   -4.17540
      H1    13.43911  -10.18620   -3.99204
       H    13.56671   -4.42344   -8.04472
       O    13.24348   -4.14640   -8.97021
      H1    12.46487   -4.75119   -9.01431
       H    17.50567   -6.29196   -6.42339
       O    16.84060   -6.78358   -5.91226
      H1    16.04233   -6.28633   -6.10600
       H    12.99360   -8.21684   -1.26842
       O    12.58609   -7.84715   -2.04979
      H1    12.85484   -8.45508   -2.78889
       H    18.42443   -3.56909   -6.32812
       O    18.37192   -4.43448   -6.79940
      H1    17.50562   -4.34569   -7.16764
       H    13.87456   -3.75095  -10.73972
       O    14.03233   -3.35518  -11.61052
      H1    13.10985   -3.18122  -11.91517
       H    17.98052   -3.09051   -2.83757
       O    17.43077   -2.34942   -2.68638
      H1    17.41288   -1.84794   -3.51472
       H    17.73403   -0.29320   -6.78894
       O    17.46523   -1.19989   -6.62290
      H1    16.95693   -1.46214   -7.40866
       H    14.80318   -0.55244   -7.90675
       O    14.02766   -0.02058   -8.24168
      H1    13.32972   -0.66967   -8.02909
       H    15.93689   -6.20344   -9.17383
       O    16.42969   -5.56391   -8.71098
      H1    17.23273   -5.41695   -9.29250
       H    18.92648   -4.24669   -8.68044
       O    18.57839   -4.04023   -9.55668
      H1    19.35805   -3.95575  -10.11982
       H    17.74357  -10.13742   -6.90180
       O    17.99691   -9.54377   -6.18039
      H1    17.58280   -8.68479   -6.26237
       H    10.02856   -4.47241   -1.98786
       O     9.93300   -3.51023   -2.15303
      H1    10.69650   -3.27649   -2.69938
       H    15.91240   -3.57072   -8.42511
       O    16.38934   -2.68846   -8.73998
      H1    17.18544   -3.18450   -9.11464
       H    10.07088   -7.74568   -7.76551
       O    10.12208   -7.92338   -8.74786
      H1    10.38170   -7.04494   -9.08592
       H    10.50524   -4.58076   -8.88593
       O    10.91501   -5.39797   -9.30019
      H1    10.83608   -5.19480  -10.25160
       H    11.17164   -5.70893   -4.78118
       O    12.02293   -6.08786   -5.18266
      H1    12.55343   -6.07178   -4.38647
       H    13.23164   -2.18164   -2.94425
       O    12.30230   -2.00513   -3.17347
      H1    12.31387   -1.14103   -3.62561
       H    13.38917   -2.31918   -6.84426
       O    12.58941   -2.10408   -7.35231
      H1    12.64575   -2.77309   -8.08652
       H    10.96706   -3.26799   -6.97402
       O    10.04232   -3.45595   -7.34203
      H1     9.70630   -2.55106   -7.56199
       H    10.15753   -8.99417   -5.67881
       O    11.03708   -8.61779   -5.85365
      H1    11.10023   -7.86835   -5.26933
       H    15.35025   -4.28424   -1.27020
       O    15.09452   -3.90136   -2.05821
      H1    15.89740   -3.39271   -2.20184
       H    14.98637   -1.90372   -4.62728
       O    15.02538   -2.10563   -5.57219
      H1    15.88815   -1.48430   -5.67240
       H    15.65153   -7.04947  -11.29340
       O    14.95854   -7.28483  -10.66440
      H1    15.14059   -8.18945  -10.42341

