90
frame 1 | Written by MDAnalysis XYZWriter (release 2.4.3)
       H    -9.61424   11.84528  -10.30333
       O    -8.93889   11.14346  -10.16419
      H1    -8.33275   11.35185  -10.91449
       H    -5.68181   18.87440   -7.92521
       O    -4.87485   19.34996   -8.28206
      H1    -4.63125   19.82532   -7.50297
       H    -4.74360   16.19759   -5.29584
       O    -3.93174   16.47608   -4.82744
      H1    -3.94077   15.85784   -3.98748
       H    -8.03364   11.88901   -8.74497
       O    -7.52924   12.42027   -8.13731
      H1    -7.25545   11.82675   -7.42636
       H   -12.79679   18.54572   -3.82243
       O   -12.33206   17.68809   -3.61989
      H1   -12.05849   17.85249   -2.64606
       H    -6.72177   16.98584   -6.28083
       O    -6.48783   16.27123   -5.69742
      H1    -7.12452   15.55338   -5.70176
       H    -6.38905   12.79980   -9.43042
       O    -5.65220   13.21670   -9.92747
      H1    -5.94945   12.96325  -10.82198
       H   -11.65922   13.80526   -3.09870
       O   -10.72181   13.92821   -2.78134
      H1   -10.36022   13.01490   -2.76676
       H    -7.82719   18.64524   -8.07150
       O    -7.30994   17.99584   -7.59934
      H1    -7.69550   17.13754   -7.81021
       H   -11.23968   17.04435   -6.96431
       O   -10.29570   17.16170   -6.93751
      H1   -10.04784   17.20285   -5.99358
       H   -10.56630   14.17617  -10.49478
       O   -10.81736   13.51257   -9.87021
      H1   -10.80667   13.93790   -9.00477
       H    -9.27044   15.98701  -11.83372
       O    -8.90707   15.21771  -11.33108
      H1    -8.39999   15.61302  -10.61351
       H   -13.01810   15.09487   -7.61448
       O   -12.68593   15.97338   -7.92293
      H1   -13.22038   16.61522   -7.48196
       H    -8.34413   11.00385   -4.03493
       O    -7.84296   11.67640   -3.48949
      H1    -6.94326   11.25913   -3.42163
       H   -15.20847   16.14044   -4.13721
       O   -14.65844   16.09611   -3.38093
      H1   -13.93136   16.69631   -3.68660
       H    -8.98592   14.43770   -4.33806
       O    -8.17375   14.12966   -4.73771
      H1    -8.11797   13.35081   -4.15901
       H    -7.63816   14.02265   -8.39756
       O    -7.41194   14.92004   -8.70148
      H1    -6.44687   14.88114   -8.80013
       H   -12.26937   19.00311   -6.06283
       O   -11.93720   19.90221   -6.38021
      H1   -11.09504   19.96323   -5.83883
       H   -10.50825   15.47072   -3.64781
       O   -10.07230   16.27060   -3.93711
      H1   -10.70351   16.98495   -3.82481
       H   -12.54226   16.83440   -9.50996
       O   -12.13700   17.32516  -10.23654
      H1   -12.65596   17.00557  -10.99089
       H    -9.18647   13.82991   -6.68492
       O   -10.05017   14.22785   -6.95313
      H1    -9.83911   15.14908   -6.94621
       H   -10.68949    9.79782   -8.36782
       O    -9.99819    9.26407   -8.77948
      H1    -9.65719    9.88588   -9.44262
       H    -9.63503   18.75094  -12.03366
       O   -10.07453   17.88194  -12.13284
      H1   -10.71636   17.89970  -11.42101
       H   -10.70310   14.92004   -1.34967
       O   -11.09098   15.03729   -0.42920
      H1   -11.44242   15.99995   -0.58513
       H   -13.68916   12.28206   -9.39069
       O   -13.17448   12.23807  -10.24726
      H1   -12.50253   12.92964  -10.13521
       H    -4.73813   13.39024   -4.65249
       O    -5.17140   13.19231   -5.48585
      H1    -6.08083   13.16655   -5.23874
       H   -12.82085   13.78222   -5.59486
       O   -12.65328   13.59660   -6.49336
      H1   -11.74543   13.87740   -6.52408
       H   -11.69359   11.89003   -7.05734
       O   -11.71620   11.01043   -7.50165
      H1   -11.99134   11.31810   -8.39717
       H   -14.38398   18.29464   -7.16935
       O   -13.87414   17.87553   -6.48148
      H1   -14.60042   17.30767   -6.21360
       H   -13.92942   14.36351   -3.64681
       O   -13.16890   13.77479   -3.93722
      H1   -13.63902   12.97955   -4.21428

