90
frame 1 | Written by MDAnalysis XYZWriter (release 2.4.3)
       H    10.43180   12.57868  -17.19092
       O    10.71342   13.01573  -16.40585
      H1    11.65411   12.76908  -16.27242
       H     3.60940   17.07542  -17.64821
       O     3.90407   17.73180  -18.30110
      H1     3.34527   17.61118  -19.12173
       H    15.86154   17.05696  -13.66382
       O    15.37502   17.18713  -12.80331
      H1    14.44172   17.37481  -13.17108
       H     7.90366   16.07854  -15.37993
       O     8.66892   16.02905  -14.78243
      H1     8.64565   16.95481  -14.42467
       H     9.94939   15.98001  -16.11440
       O    10.63712   15.85930  -16.75358
      H1    10.64424   14.87698  -16.79763
       H     7.05002   18.82288  -13.17363
       O     6.37891   18.68243  -12.52236
      H1     6.04734   19.55536  -12.47800
       H    17.73139   14.92689  -17.50890
       O    17.85062   15.88682  -17.38693
      H1    17.50516   15.98725  -16.48268
       H     7.92330   16.03345  -19.82955
       O     7.47401   16.53323  -19.17214
      H1     8.20903   17.03029  -18.68424
       H    12.40948   16.17430  -16.30691
       O    13.32893   16.09915  -15.91711
      H1    13.68188   15.42907  -16.52275
       H    11.22772   15.29088  -12.53067
       O    11.16721   14.38318  -12.27941
      H1    10.26083   14.16956  -12.02378
       H    16.65290   19.02602  -13.58319
       O    16.50391   19.93525  -13.35098
      H1    15.71142   19.99242  -12.82999
       H     7.12730   12.74573  -14.93381
       O     7.57146   13.06904  -15.70994
      H1     8.45801   13.35901  -15.51740
       H    11.76887   19.44123  -11.63563
       O    12.65696   19.81676  -11.59282
      H1    13.03631   19.00382  -11.14405
       H    14.38051   13.59342  -17.57000
       O    14.91753   14.36424  -17.41141
      H1    15.36236   14.52019  -18.27055
       H    12.64796   16.28412  -13.92606
       O    12.43906   16.81582  -13.16384
      H1    12.00392   17.57918  -13.66763
       H     9.00667   19.32392  -14.28144
       O     8.24500   18.98350  -14.75950
      H1     8.41512   19.36885  -15.64978
       H    13.52703   16.85773  -11.13514
       O    13.51144   17.54270  -10.46766
      H1    14.36663   17.46465   -9.94568
       H    15.37322   14.93227  -11.51513
       O    14.60606   14.48795  -12.03532
      H1    14.27107   15.28718  -12.40434
       H    10.10098   16.93019  -18.08055
       O     9.70480   17.74273  -18.51204
      H1     9.86038   17.52785  -19.44973
       H    11.43654   18.83142  -15.22686
       O    11.38569   19.03141  -14.27449
      H1    12.16223   19.53051  -14.04966
       H    16.31562   18.12267  -16.01766
       O    16.98672   18.04437  -15.34461
      H1    17.61874   18.81328  -15.44373
       H     8.49856   15.01080  -13.17140
       O     8.31461   14.39844  -12.47225
      H1     7.36222   14.51388  -12.21541
       H     5.26256   17.82886  -15.17299
       O     4.41552   18.25099  -14.98875
      H1     4.66037   19.16074  -15.21450
       H     9.76395   18.48718  -10.83595
       O    10.06137   19.09802  -11.51674
      H1     9.32588   19.72394  -11.45781
       H    17.30460   18.19853  -19.59378
       O    16.99882   17.24254  -19.73573
      H1    17.18165   16.89214  -18.89039
       H    14.51322   17.96020  -17.85301
       O    14.63503   18.18585  -16.90195
      H1    14.22227   17.37532  -16.48911
       H     6.64735   16.36396  -17.62146
       O     6.60788   16.16349  -16.65143
      H1     6.59296   15.17327  -16.71383
       H    13.78030   11.47391  -17.10149
       O    13.31369   12.26655  -17.31173
      H1    13.26200   12.18625  -18.26203
       H    10.99116   18.72767  -17.53244
       O    11.59250   19.26243  -16.92406
      H1    12.40939   19.08236  -17.42068
       H    13.59917   13.40480  -13.48835
       O    12.85124   12.96164  -13.90824
      H1    12.07205   13.35979  -13.46064

