90
frame 1 | Written by MDAnalysis XYZWriter (release 2.4.3)
       H     6.09292    3.28297   17.25602
       O     5.91055    4.25395   17.31433
      H1     5.51577    4.34803   18.22696
       H     7.45598    2.32309   14.57276
       O     8.15404    2.70945   14.02030
      H1     7.76272    2.70645   13.13801
       H     9.05087   -1.45868   13.31909
       O     9.60461   -1.16451   12.58802
      H1    10.37399   -0.82690   13.17424
       H    13.57369    1.07886   16.03213
       O    12.66502    1.12052   15.62525
      H1    12.13737    1.24602   16.44577
       H    10.38973   -3.13945   15.58230
       O     9.79268   -2.88000   16.38284
      H1     9.57310   -3.79765   16.65966
       H    11.19095   -4.58782   13.92240
       O    11.49259   -4.02943   14.68001
      H1    11.40465   -4.60883   15.41555
       H     8.73659   -1.64386   19.80296
       O     8.83796   -1.90528   18.86203
      H1     9.74246   -2.29649   18.71927
       H     5.62839   -4.38006   18.79814
       O     4.82384   -4.69047   18.35074
      H1     5.16638   -4.30978   17.49003
       H    15.09431    3.35937   17.41048
       O    15.61901    4.14214   17.48594
      H1    15.08326    4.75601   16.96065
       H     7.81695   -5.95304   16.98599
       O     8.46120   -5.83685   17.76146
      H1     8.45897   -6.72273   18.13802
       H     7.84080   -3.20306   19.11344
       O     7.28279   -3.93436   19.38786
      H1     7.78120   -4.72180   19.20866
       H    11.61081    0.38225   13.99851
       O    11.93904   -0.20535   13.30377
      H1    12.88196   -0.33938   13.46920
       H    15.38183    1.11481   17.65950
       O    14.53057    1.56468   17.80882
      H1    14.34273    1.25459   18.69687
       H     5.82961    0.76066   16.52340
       O     6.49284    1.45575   16.51636
      H1     7.30403    0.90324   16.45971
       H    12.69596   -3.14516   18.88006
       O    11.73404   -3.36676   19.05865
      H1    11.60443   -3.04697   19.97731
       H     2.67659    2.00144   16.63130
       O     3.47679    2.44053   16.85550
      H1     3.62560    3.12093   16.17979
       H    11.50618   -4.42750   17.75467
       O    11.33711   -5.15044   17.13164
      H1    10.33853   -5.27816   17.27072
       H    15.06321   -1.59144   14.96918
       O    15.98532   -1.88192   14.89442
      H1    16.31007   -1.75986   15.83479
       H    10.05019    4.14755   15.15355
       O    10.38911    4.98791   15.44119
      H1     9.54848    5.41735   15.57061
       H    11.33650    5.24210   18.64615
       O    11.58611    4.62315   17.98628
      H1    11.20182    4.97246   17.18502
       H    12.71075   -2.61919   15.25624
       O    13.34391   -1.91830   15.48649
      H1    13.04981   -1.04935   15.19260
       H    14.11619    4.37963   13.59103
       O    14.61485    3.68205   14.14891
      H1    13.93711    3.49624   14.82585
       H     4.93929   -0.71665   14.59852
       O     5.71445   -0.34580   14.16486
      H1     6.34382   -1.09052   14.37090
       H     7.93665   -2.16352   15.51118
       O     7.39156   -2.37442   14.76566
      H1     7.99338   -2.73544   14.09691
       H    13.36818   -1.74359   17.33584
       O    13.80215   -1.56462   18.18022
      H1    14.63237   -2.02424   18.11184
       H     8.09619   -4.30814   12.52826
       O     8.89840   -3.87195   12.86679
      H1     8.99645   -3.17205   12.20492
       H     9.52025    1.59203   18.38829
       O     9.32522    0.90658   17.74670
      H1     9.49940    0.04395   18.24339
       H     4.67535   -2.72646   15.83249
       O     5.31051   -3.43828   16.11798
      H1     6.04142   -2.98506   15.69240
       H     9.29448    0.50970   15.94624
       O     9.16700    0.19930   15.02411
      H1     8.93976    0.91116   14.43164
       H     7.10910    7.05812   16.93832
       O     7.83863    6.63033   17.43721
      H1     7.39186    5.75894   17.60360

