90
frame 1 | Written by MDAnalysis XYZWriter (release 2.4.3)
       H    16.04333   12.47741    4.42435
       O    16.32489   13.39536    4.46651
      H1    17.29693   13.37465    4.57911
       H    12.57748   14.77045    2.23401
       O    12.00650   14.65467    2.97377
      H1    11.94409   15.52450    3.29295
       H    14.23880   10.20795    4.76199
       O    14.77199   11.03283    4.68096
      H1    14.16561   11.70983    4.94610
       H    15.56146   14.14628    1.67792
       O    16.41891   14.48066    1.92490
      H1    16.47466   14.13381    2.84321
       H    11.46411   18.07631    3.14852
       O    11.02513   17.33910    3.59240
      H1    11.63501   17.18071    4.34778
       H    14.78444   19.51954    6.09140
       O    14.75359   19.80263    5.10702
      H1    15.44759   19.22429    4.75518
       H    17.76195   15.82711   11.76890
       O    18.09556   15.41756   10.94906
      H1    17.63035   16.05974   10.32239
       H    11.77433   16.09748    6.68405
       O    12.32797   16.60021    6.04364
      H1    12.53364   17.42071    6.53867
       H    14.15651   12.42193   11.29687
       O    14.32486   12.59974   10.36948
      H1    15.25200   12.44817   10.18481
       H    18.94131   14.50521    7.28552
       O    18.72152   15.47682    7.32834
      H1    18.95225   15.72180    6.42041
       H    11.01200   15.49713   11.34651
       O    10.80735   16.47523   11.29757
      H1    10.28364   16.72723   12.10753
       H    19.59670   17.33434    5.77322
       O    19.24508   16.73965    5.08073
      H1    18.34504   16.99888    4.78806
       H     8.37355   13.10894    5.97459
       O     9.12801   13.43479    5.45033
      H1     9.67270   14.00466    6.10031
       H    16.33286   17.16978   12.01754
       O    15.67280   17.85346   11.92227
      H1    15.22293   17.69291   12.76497
       H    14.26143   14.24805   10.09870
       O    14.31220   15.22857   10.24356
      H1    13.96233   15.25099   11.13663
       H    14.46141   18.72462    8.30330
       O    15.33316   18.67615    7.89017
      H1    15.90527   18.29647    8.61998
       H    16.66232   17.39526    3.64279
       O    16.32977   17.88326    4.43709
      H1    15.74639   17.26382    4.86631
       H    10.00919   15.17201    8.01856
       O    10.64443   14.95843    7.29971
      H1    11.31626   14.42741    7.87554
       H    17.42081   13.46734   10.51964
       O    17.22602   12.55269   10.32759
      H1    17.15593   12.53776    9.33571
       H    13.93314   15.88050    5.39070
       O    14.90400   15.83886    5.24491
      H1    14.83007   14.96626    4.79619
       H    14.01756   17.10324    9.88336
       O    13.49280   17.92118    9.77479
      H1    13.02829   17.76557   10.66677
       H    10.67403   18.49828    7.19265
       O    11.53712   18.64941    7.61907
      H1    11.49435   19.28297    8.40448
       H    14.91831   15.14804    6.96806
       O    14.98564   14.53593    7.70483
      H1    15.04141   15.21313    8.37829
       H    14.53378   11.29729    8.39526
       O    13.70843   10.87602    8.03780
      H1    13.96217   10.30139    7.27598
       H    12.78094   12.64893    8.15899
       O    12.64030   13.60364    8.28131
      H1    13.48756   13.94480    8.03445
       H    12.59063   13.41829    6.23291
       O    13.06481   13.13998    5.43887
      H1    12.55152   13.53829    4.67318
       H    16.36638   11.73181    6.84836
       O    16.46131   12.12446    7.72733
      H1    16.02853   13.02216    7.57578
       H    18.13132   17.52681    8.89349
       O    17.24659   17.08250    9.04710
      H1    17.30322   16.29322    8.47005
       H    11.60614   12.80360   10.30449
       O    11.10232   12.01970   10.44758
      H1    11.75087   11.34146   10.45701
       H    16.52222   16.26371    2.04930
       O    16.97716   17.13277    2.03251
      H1    16.28484   17.75353    1.66364

