90
frame 0 | Written by MDAnalysis XYZWriter (release 2.4.3)
       H    -8.01830    1.00376   -6.05311
       O    -8.82516    1.59565   -6.10251
      H1    -8.53465    2.11472   -6.86185
       H    -8.56431    0.98178   -8.65068
       O    -8.69747    0.03901   -8.80357
      H1    -9.07158   -0.22391   -7.92826
       H    -6.63011   -1.69347  -10.86875
       O    -7.57799   -1.43210  -11.04835
      H1    -7.77649   -0.98918  -10.21949
       H    -2.25503   -7.59221   -3.76745
       O    -2.95923   -6.97811   -3.91979
      H1    -3.58482   -7.04614   -3.15304
       H    -1.53158   -2.81311   -5.58398
       O    -0.78283   -3.40529   -5.34307
      H1    -0.22447   -3.34748   -6.17729
       H    -3.38500    0.85241   -4.97913
       O    -3.03229    0.15208   -4.44798
      H1    -2.15259    0.49422   -4.17200
       H    -6.40916   -6.27229   -3.45447
       O    -5.68217   -6.16272   -2.74738
      H1    -5.42556   -5.24910   -3.01291
       H    -3.34337   -0.35397   -2.55806
       O    -3.37984   -0.82468   -1.68231
      H1    -2.73027   -0.34218   -1.12251
       H    -9.23233   -2.32109   -3.71838
       O    -8.97139   -1.69074   -4.44429
      H1    -8.61222   -1.01770   -3.89007
       H    -0.03054   -7.16511   -5.61694
       O    -0.77526   -6.69282   -5.97461
      H1    -0.80758   -5.87717   -5.39446
       H    -3.95725   -1.52407   -4.76857
       O    -3.98377   -2.47348   -5.12996
      H1    -4.64014   -2.36624   -5.83913
       H    -7.00338    0.66321   -2.79986
       O    -6.97095   -0.13473   -3.39109
      H1    -6.66344   -0.72257   -2.71740
       H    -2.50712   -0.73897   -5.98397
       O    -1.96621   -1.19351   -6.65390
      H1    -1.35343   -0.45791   -6.75982
       H    -4.39105   -7.60615   -6.05129
       O    -5.03649   -8.30117   -6.19319
      H1    -5.85217   -7.88711   -5.87463
       H    -9.81814   -1.22683   -5.83566
       O   -10.31533   -1.06612   -6.68179
      H1   -10.49108   -0.16724   -6.49440
       H    -8.05291   -4.86648   -9.40771
       O    -7.73305   -5.13064   -8.49455
      H1    -8.59476   -5.52275   -8.19627
       H    -3.58111    1.78030   -6.99320
       O    -4.23600    1.81108   -6.29176
      H1    -4.84576    1.13155   -6.61048
       H    -5.97657   -6.00182   -8.95437
       O    -5.18649   -6.44973   -9.28634
      H1    -4.48337   -6.28815   -8.60881
       H    -5.00174   -1.33497   -1.47033
       O    -5.92119   -1.71028   -1.47972
      H1    -5.61086   -2.66299   -1.67324
       H    -2.39478   -2.61801   -8.09343
       O    -2.26355   -3.19739   -8.86075
      H1    -2.58451   -4.05743   -8.58675
       H    -2.04266   -6.67749   -8.22999
       O    -2.77155   -6.11119   -7.86645
      H1    -2.51789   -6.05086   -6.94796
       H    -3.74380   -3.61805   -2.28967
       O    -4.66001   -3.61295   -2.58428
      H1    -4.54605   -3.09190   -3.42164
       H    -0.65286   -4.14603   -8.40423
       O     0.24705   -4.25618   -7.97258
      H1     0.20033   -5.18793   -7.63088
       H     0.74454   -3.35454   -1.99624
       O     0.33306   -2.69868   -2.55896
      H1     0.12345   -3.30877   -3.29454
       H    -8.46513   -3.16348   -5.35970
       O    -7.91741   -3.89239   -5.56268
      H1    -8.28627   -4.09855   -6.46906
       H    -8.65260   -6.53484   -4.12751
       O    -7.75792   -6.52691   -4.52041
      H1    -7.75584   -5.66218   -4.96079
       H    -4.44634   -0.85331  -10.42042
       O    -4.51105   -1.40197   -9.60696
      H1    -3.85935   -2.16643   -9.70213
       H    -6.47012   -0.73969   -6.46012
       O    -6.47256    0.14031   -5.98844
      H1    -6.64859   -0.20382   -5.05365
       H    -5.54701   -1.81992   -8.26333
       O    -6.13215   -2.12032   -7.53875
      H1    -6.42708   -2.97268   -7.90266
       H    -1.84411   -2.90142   -1.97595
       O    -2.12264   -3.67600   -1.42897
      H1    -2.61276   -3.18207   -0.71345

