90
frame 1 | Written by MDAnalysis XYZWriter (release 2.4.3)
       H   -13.67962   -0.08652  -10.61922
       O   -13.98246    0.76812  -10.28684
      H1   -13.62840    1.35330  -11.04077
       H   -12.89575    3.56423  -11.31335
       O   -13.11072    2.83545  -12.00126
      H1   -13.78269    3.33820  -12.52489
       H   -13.48857    4.85799   -8.34723
       O   -14.12542    5.20641   -7.68664
      H1   -14.67947    5.79471   -8.23907
       H   -17.36781    1.37658   -7.62924
       O   -17.95213    1.20498   -8.35414
      H1   -18.37398    0.35026   -8.35449
       H   -14.59396    1.35823   -6.96285
       O   -14.05090    1.86002   -7.56748
      H1   -14.22874    1.34461   -8.36733
       H   -15.44610    3.40354  -13.00558
       O   -15.76354    2.50098  -13.04347
      H1   -16.11451    2.32976  -12.11682
       H   -17.89083    3.93422  -17.91839
       O   -18.37615    3.15252  -17.67842
      H1   -19.01818    3.42780  -17.00900
       H   -18.83058   -2.73732  -13.80320
       O   -18.01915   -3.26144  -13.54140
      H1   -17.44081   -2.51191  -13.29628
       H   -16.16901    5.64753  -14.06769
       O   -16.76847    6.27877  -14.54075
      H1   -17.59073    5.87384  -14.33946
       H   -13.72163    5.24464  -13.61683
       O   -14.54551    4.76778  -13.81780
      H1   -14.37063    4.52406  -14.73638
       H   -18.00239    2.90638  -10.54895
       O   -17.47011    2.15618  -10.85227
      H1   -17.41608    1.71392   -9.95717
       H   -16.69341   -0.81999  -12.39004
       O   -16.54382   -1.02549  -13.36096
      H1   -16.93112   -0.25321  -13.83935
       H   -15.83567    7.55315   -9.09149
       O   -16.06100    6.59998   -9.05124
      H1   -16.92102    6.61338   -9.49035
       H   -15.19114   -0.28161   -4.77751
       O   -15.10031   -0.36430   -5.74082
      H1   -14.17252   -0.71077   -5.91096
       H   -17.27628   -2.13603   -6.34856
       O   -17.92351   -2.33524   -5.65535
      H1   -17.44407   -3.03929   -5.16940
       H   -18.78472    5.86410   -6.14198
       O   -19.76805    5.89652   -6.12496
      H1   -19.84980    5.70123   -5.16754
       H   -15.50380   -1.60946  -10.69821
       O   -16.41327   -1.46960  -10.41276
      H1   -16.86456   -2.28511  -10.66483
       H   -16.74693    4.62594   -6.16441
       O   -17.07005    5.45527   -6.56934
      H1   -16.55449    5.39537   -7.41969
       H   -18.04858   -3.77729  -11.74144
       O   -18.02847   -3.70514  -10.76207
      H1   -18.00658   -4.69301  -10.62310
       H   -16.66730    8.11397   -7.32767
       O   -16.74917    8.31620   -6.37779
      H1   -17.73369    8.51952   -6.29341
       H   -16.12788   -1.79598   -8.66958
       O   -16.15539   -2.01251   -7.71807
      H1   -15.79071   -1.23611   -7.37183
       H   -18.96740    6.09124  -10.04230
       O   -18.62589    6.96631   -9.94602
      H1   -19.38817    7.42172   -9.62008
       H   -13.33018   -1.69899  -11.95883
       O   -13.94933   -2.10324  -11.31299
      H1   -13.37313   -2.48544  -10.65491
       H   -16.98192    1.37206  -15.82092
       O   -17.31100    1.09208  -14.97497
      H1   -16.80181    1.58583  -14.33572
       H   -15.82729    2.83036   -5.58359
       O   -16.65766    2.68348   -5.99541
      H1   -17.15661    2.05989   -5.52461
       H   -11.85843    4.66329   -9.97116
       O   -12.82928    4.80118  -10.02890
      H1   -12.87142    5.70980  -10.31627
       H   -11.04764    2.37885   -6.64878
       O   -11.36591    2.03349   -7.52217
      H1   -12.35656    1.97406   -7.41482
       H   -13.31160    0.50074  -13.98548
       O   -13.60732    1.33440  -14.42152
      H1   -14.27342    1.72534  -13.79969
       H   -18.70425   -1.55738   -9.78469
       O   -19.39042   -1.10349   -9.31564
      H1   -19.73322   -1.76639   -8.67311
       H   -14.91532   -1.63499  -15.93862
       O   -14.82036   -0.67890  -16.04747
      H1   -15.32429   -0.47675  -15.21773

