90
frame 1 | Written by MDAnalysis XYZWriter (release 2.4.3)
       H    -2.19839    4.30313    4.29800
       O    -2.31666    5.22365    3.94601
      H1    -2.93823    5.63556    4.47999
       H    -5.46909    7.68486   -2.14423
       O    -6.45080    7.73319   -1.86324
      H1    -6.35424    8.03656   -0.96937
       H    -1.99841    3.72848   -3.85559
       O    -1.04761    3.48683   -3.85291
      H1    -0.58160    4.29652   -3.58422
       H    -0.77167   12.04806   -1.76225
       O    -0.47804   11.19150   -1.41699
      H1     0.18735   10.81417   -2.02393
       H    -4.37837    4.66550   -3.97357
       O    -3.45552    4.89927   -4.18872
      H1    -3.53161    5.15846   -5.12148
       H    -0.74860    5.87314   -2.30509
       O    -0.00937    5.74568   -2.91269
      H1     0.76038    5.68886   -2.26816
       H     0.98115   11.87622    2.36730
       O     1.32249   11.02035    2.74764
      H1     0.84919   10.47301    2.08924
       H    -4.10588    8.60859    0.79632
       O    -4.59944    9.42156    1.21545
      H1    -4.30587    9.42083    2.14196
       H    -4.53663   11.72081   -0.24783
       O    -5.37600   12.06502   -0.56904
      H1    -5.94704   11.78080    0.09984
       H    -7.30453    5.09062   -1.09111
       O    -6.38975    5.08328   -1.13723
      H1    -6.18926    6.01842   -1.16517
       H    -5.22786    7.08562    3.80689
       O    -5.21697    6.11058    3.99635
      H1    -5.32789    5.77117    3.08169
       H    -6.17001    8.73756    0.94176
       O    -7.13380    8.69621    0.65760
      H1    -7.41483    7.86054    1.08091
       H    -2.54925    9.98439   -0.26246
       O    -2.11976    9.12630   -0.52953
      H1    -1.27109    9.45185   -0.83795
       H    -1.27878    6.32285    0.30460
       O    -1.63975    6.22870   -0.58602
      H1    -1.87108    7.16454   -0.71592
       H    -1.29588    9.28858    1.31765
       O    -0.80957    9.60669    2.08815
      H1    -0.62491    8.75099    2.49922
       H     2.53994    7.35469    1.59889
       O     1.96354    6.59846    1.71475
      H1     2.21928    6.15983    2.56211
       H     0.22682    6.26239    2.00861
       O    -0.70957    6.48090    1.96209
      H1    -1.04873    6.03102    2.72843
       H    -3.99569    7.53254   -4.40115
       O    -3.75469    7.46721   -3.43745
      H1    -3.51736    6.55246   -3.24619
       H     2.96559    4.76143   -0.75149
       O     2.17771    5.37572   -0.88186
      H1     2.17102    5.75657    0.02149
       H     1.38643    3.78764   -0.02712
       O     1.46053    2.98280    0.44914
      H1     0.95274    2.37445   -0.03860
       H    -2.98139    3.53941   -1.24900
       O    -2.73966    3.76924   -0.30150
      H1    -2.23624    4.58704   -0.50356
       H    -2.96398    9.42999   -3.69521
       O    -2.29450   10.10671   -3.53941
      H1    -2.07291    9.97080   -2.61408
       H    -5.16248   11.41045   -2.18335
       O    -4.86492   11.40527   -3.11231
      H1    -4.01918   10.94124   -3.06040
       H     0.26819    6.57901   -4.52121
       O     0.58228    7.01445   -5.32803
      H1    -0.19717    7.43687   -5.68884
       H     3.83433    8.70441   -0.61509
       O     2.99633    8.36690   -0.29714
      H1     3.13119    7.41596   -0.33470
       H    -2.79999   11.24836    1.39145
       O    -2.91027   11.45120    0.46604
      H1    -2.17424   12.12350    0.36248
       H     0.37761    7.88173   -2.40866
       O     0.67808    8.68761   -1.93930
      H1     1.43686    8.37216   -1.33167
       H    -2.63708    1.18727    1.91572
       O    -2.74292    1.42282    0.97112
      H1    -2.20368    2.26546    0.92733
       H     0.53287   11.02444   -4.39652
       O     1.04310   10.94401   -3.57520
      H1     1.16704    9.95134   -3.52174
       H    -5.47467    5.17870    0.63738
       O    -5.02534    5.12227    1.46769
      H1    -4.18390    4.84122    1.10930

