90
frame 1 | Written by MDAnalysis XYZWriter (release 2.4.3)
       H   -17.64870   -7.85116   -3.07822
       O   -17.01435   -7.14968   -3.24150
      H1   -16.24760   -7.74057   -3.49080
       H   -14.69875   -3.57430   -3.46350
       O   -15.41750   -3.01116   -3.04272
      H1   -15.23323   -3.25694   -2.08726
       H   -12.69587   -8.69956   -1.78806
       O   -12.43216   -9.30505   -2.52100
      H1   -11.48194   -9.26536   -2.45427
       H   -17.21087   -7.08745   -0.02207
       O   -17.08585   -6.24368    0.47882
      H1   -16.52352   -6.60441    1.17526
       H   -10.49041   -3.81031   -4.65480
       O   -11.10123   -4.57116   -4.66013
      H1   -10.49371   -5.19012   -4.15269
       H   -11.30696   -3.12883   -1.06789
       O   -11.09124   -2.22677   -1.30284
      H1   -10.14620   -2.23104   -1.00543
       H   -11.37982    1.31394   -3.69258
       O   -11.17495    0.69446   -2.93103
      H1   -11.58217   -0.12829   -3.24352
       H   -14.98201    1.66623    0.01696
       O   -15.21135    0.74067   -0.02911
      H1   -16.03406    0.74449    0.49287
       H   -14.92112   -0.01592   -1.87762
       O   -15.01875   -0.36246   -2.81266
      H1   -15.39356   -1.22041   -2.61521
       H   -13.96349   -4.00829   -0.16919
       O   -13.00236   -4.27781   -0.21021
      H1   -12.92331   -4.95209    0.51268
       H   -13.26152   -7.22607    4.57268
       O   -12.92098   -6.49544    3.99534
      H1   -13.75008   -6.04450    3.79905
       H   -13.31800   -0.10066    0.31539
       O   -13.16821   -1.04214    0.10763
      H1   -12.33652   -1.01452   -0.36499
       H   -13.32553   -6.74332   -4.57049
       O   -13.23044   -7.63756   -4.93219
      H1   -13.49937   -8.23879   -4.24702
       H    -9.30206   -1.43150    1.33404
       O    -9.07441   -1.11512    0.46074
      H1    -8.08741   -1.24290    0.50414
       H   -16.33402   -7.71069    3.18540
       O   -15.74641   -7.28712    2.53658
      H1   -15.20534   -7.94768    2.11232
       H   -17.89516    0.02046    1.47172
       O   -17.26222    0.28743    2.18453
      H1   -16.82465   -0.56553    2.29715
       H   -16.12071   -4.59541   -0.11725
       O   -15.79463   -3.69061   -0.35194
      H1   -15.59481   -3.15955    0.44859
       H   -15.95726   -5.40076    3.54294
       O   -15.79356   -4.66822    4.09372
      H1   -16.12918   -5.01941    4.95016
       H   -14.86258   -1.27018    1.20886
       O   -15.44389   -2.00660    1.59304
      H1   -14.97682   -2.34109    2.40603
       H   -10.97352   -6.66063   -2.50295
       O   -10.06754   -6.47322   -2.75697
      H1    -9.66873   -6.48002   -1.81406
       H   -18.70327   -4.37938    2.62341
       O   -18.96189   -5.29132    2.35794
      H1   -18.23877   -5.40197    1.78253
       H   -18.68100   -1.48604   -1.04234
       O   -17.80394   -1.37744   -1.30354
      H1   -17.43077   -2.11964   -0.79383
       H   -12.40592   -2.13013    3.13171
       O   -11.73359   -1.70211    2.53246
      H1   -12.21083   -1.59063    1.73579
       H   -11.79151   -7.35564    1.30845
       O   -11.72376   -6.40925    1.58774
      H1   -12.00310   -6.45143    2.51052
       H   -14.16838   -4.80433   -4.98563
       O   -13.80743   -5.06135   -4.12848
      H1   -12.91741   -4.78294   -4.19683
       H   -13.08417   -6.40351   -2.38837
       O   -12.57050   -6.59886   -1.62245
      H1   -12.75192   -5.87745   -0.97475
       H   -13.90001   -2.14648    4.82341
       O   -14.00794   -2.59602    3.99033
      H1   -14.37900   -3.46549    4.41227
       H   -10.07547   -5.24869    2.16596
       O    -9.30790   -4.97227    2.70797
      H1    -9.16039   -5.68202    3.33066
       H   -17.40411   -5.34396   -3.54356
       O   -17.64362   -4.45088   -3.81394
      H1   -16.93839   -3.95088   -3.37125
       H   -12.13271   -2.09653   -2.97028
       O   -12.35147   -1.46306   -3.72374
      H1   -13.27371   -1.29055   -3.41314

