90
frame 1 | Written by MDAnalysis XYZWriter (release 2.4.3)
       H    -3.16159   15.19964    7.09839
       O    -2.43637   14.94734    6.46468
      H1    -1.65639   14.94622    7.13304
       H    -5.09925    8.65962    7.81563
       O    -5.85462    9.11369    7.41342
      H1    -6.63042    8.51924    7.62525
       H    -3.51380   13.64918    5.44912
       O    -4.14345   12.93913    5.27370
      H1    -4.25641   12.47152    6.10560
       H    -5.31410   16.54450    6.25023
       O    -5.33801   15.64076    6.51030
      H1    -5.50457   15.29757    5.58581
       H    -6.13178   14.95071   12.75024
       O    -6.21973   14.79315   13.69538
      H1    -5.51623   15.43314   14.00714
       H    -9.28518   12.67996    9.20269
       O    -8.81832   11.89572    8.76868
      H1    -9.45011   11.17354    8.95199
       H    -9.84779   17.61856    9.07204
       O    -9.24915   16.85614    9.21498
      H1    -9.80775   16.07089    9.05298
       H   -10.87724   14.04336    9.68314
       O   -10.31425   14.29412    8.93003
      H1   -10.87705   13.98158    8.23015
       H    -8.78334   11.79037   11.76715
       O    -9.35102   12.36041   12.35003
      H1   -10.02815   11.75887   12.71941
       H    -8.91542   14.69712    3.59900
       O    -8.38379   14.14895    2.92740
      H1    -7.61126   13.92090    3.44887
       H    -6.20711   14.32429    9.11199
       O    -6.65966   14.06930    8.31040
      H1    -6.26420   14.79441    7.71836
       H   -11.00599   15.81003   11.34507
       O   -10.36390   16.39389   11.85098
      H1    -9.84057   16.85732   11.19521
       H    -8.71459   16.35109    7.53744
       O    -8.52408   15.68296    6.84497
      H1    -8.26083   14.95937    7.43764
       H    -7.65770   11.00803    9.99046
       O    -7.38100   10.77182   10.90446
      H1    -6.66674   11.40361   11.10939
       H   -10.73626   13.14877   11.59593
       O   -11.57817   13.27335   11.12690
      H1   -11.82532   12.41654   10.69727
       H    -5.57400   11.22325    7.65424
       O    -4.99040   11.95614    7.89350
      H1    -5.57805   12.72788    8.06778
       H    -5.82958    9.60974   10.83868
       O    -5.15643    9.01512   11.14678
      H1    -4.81393    9.44486   11.96667
       H    -4.22850   12.85908   11.59006
       O    -4.87349   12.50153   12.22570
      H1    -4.73048   12.76707   13.17333
       H    -6.62405   16.92946   11.14402
       O    -6.40794   16.79328   10.20500
      H1    -7.29010   16.93130    9.82301
       H    -2.00849   13.50323   10.38489
       O    -2.75863   13.87192   10.89477
      H1    -2.80654   14.80154   10.61684
       H    -3.42438   17.72093    9.46587
       O    -2.95063   16.98271    9.83386
      H1    -2.05919   17.09818    9.47849
       H    -7.16125   16.95194    6.31740
       O    -6.85691   17.90029    6.19273
      H1    -7.41558   18.36330    6.85527
       H    -6.64303   12.88385    5.26894
       O    -6.99587   12.02668    4.78881
      H1    -7.98416   11.97275    5.09086
       H    -5.13708   14.14648    4.15855
       O    -6.02720   14.62811    4.20686
      H1    -6.05395   15.12002    3.38720
       H    -9.17155   12.37856    7.09183
       O    -9.46484   12.30768    6.14802
      H1   -10.00750   11.54147    6.18077
       H    -9.60231   15.90484    5.52691
       O    -9.75682   16.19574    4.58002
      H1   -10.69388   16.00479    4.49563
       H    -2.23183   10.77268    9.13463
       O    -2.90951   10.20855    8.75583
      H1    -3.55600   10.94279    8.66276
       H    -2.61672   16.93884    6.23823
       O    -2.43277   17.89627    6.22893
      H1    -2.88701   18.10008    5.43279
       H    -5.24921   18.03956    9.86508
       O    -4.80527   18.88144    9.98456
      H1    -4.42874   18.76088   10.87971
       H   -12.61746   14.25202    6.33396
       O   -12.13028   13.50603    6.74035
      H1   -11.25830   13.41971    6.23558

