90
frame 1 | Written by MDAnalysis XYZWriter (release 2.4.3)
       H     7.22544   10.72515   -9.24238
       O     6.95164   11.50222   -9.79771
      H1     6.52824   12.05246   -9.12014
       H     9.71647   13.20376   -8.38334
       O     9.16156   13.10089   -7.64562
      H1     9.58991   13.65384   -6.99138
       H     8.77373   15.40059   -5.03125
       O     9.49907   15.65924   -4.44491
      H1     9.20751   16.26645   -3.76095
       H    11.22772   15.29088  -12.53067
       O    11.16721   14.38318  -12.27941
      H1    10.26083   14.16956  -12.02378
       H    11.73921   14.70708   -7.97404
       O    12.05020   14.65819   -7.02395
      H1    11.79690   15.53530   -6.65570
       H    11.14880   14.99456  -10.44986
       O    11.00905   15.50881   -9.64198
      H1    11.88378   15.96082   -9.58011
       H    11.56858    8.04264   -7.04545
       O    11.37699    8.43573   -7.89827
      H1    10.72232    7.87512   -8.31753
       H    11.73612   13.82359   -4.59709
       O    11.58148   12.87294   -4.37767
      H1    10.67721   12.61454   -4.52964
       H     4.40661   10.99478   -5.45283
       O     5.35475   10.79805   -5.64387
      H1     5.18173    9.84080   -5.73448
       H     3.77601   11.18144   -9.80604
       O     4.39194   10.41831   -9.80403
      H1     5.20008   10.90468  -10.05685
       H     9.40113   18.18923   -6.54698
       O     8.60459   18.54172   -6.09059
      H1     7.93623   18.64038   -6.79882
       H     5.00819   12.64243   -3.07220
       O     5.90232   12.76085   -3.47596
      H1     5.83333   12.02391   -4.08669
       H     8.52763   14.15342   -1.56520
       O     9.54360   14.14967   -1.66386
      H1     9.75766   14.57173   -2.52431
       H     9.29893   11.44888   -5.56199
       O     9.06507   11.86958   -4.70360
      H1     8.45172   12.64829   -4.94923
       H     7.83741   10.56369   -3.83410
       O     7.51179    9.70547   -3.55006
      H1     8.35445    9.18633   -3.57006
       H    14.67881   12.27955   -9.61793
       O    13.78078   12.12371   -9.99005
      H1    13.69025   12.81404  -10.66530
       H    10.83655   16.52422   -5.51438
       O    11.30747   17.12864   -6.18818
      H1    11.93888   17.64005   -5.62255
       H     6.60281   16.21558   -8.69319
       O     5.83650   15.78137   -8.25813
      H1     5.87012   14.82770   -8.26630
       H     8.69657   11.78634  -11.12096
       O     9.62996   11.81334  -10.97940
      H1     9.70458   11.29930  -10.18200
       H     8.49856   15.01080  -13.17140
       O     8.31461   14.39844  -12.47225
      H1     7.36222   14.51388  -12.21541
       H     7.19438    8.85072   -8.13465
       O     7.87629    9.21983   -8.78439
      H1     8.60021    9.33211   -8.10227
       H     7.19687   13.95728   -6.54294
       O     7.55999   14.00965   -5.63232
      H1     6.71816   13.66756   -5.07984
       H     5.39905   13.84172  -12.17186
       O     5.77062   14.37526  -11.43020
      H1     5.15202   15.13243  -11.42069
       H    12.20609   11.38713  -13.07349
       O    11.72984   10.67014  -12.67704
      H1    11.07144   10.97194  -12.03517
       H    13.70208   14.24596   -7.33268
       O    14.61307   13.96883   -7.16707
      H1    15.06653   14.70922   -7.59486
       H    13.46140   10.60304   -9.08829
       O    13.78026    9.87416   -8.53625
      H1    12.97733    9.29898   -8.41965
       H     5.99633   12.13161   -7.18603
       O     5.70661   12.85568   -7.85274
      H1     4.76234   12.94286   -7.73798
       H    10.29421   10.19691   -7.03034
       O     9.37906   10.43170   -6.97137
      H1     9.28607   11.27824   -7.52997
       H    13.07412   11.58178   -5.87343
       O    13.28437   10.68758   -6.07590
      H1    13.45311   10.59797   -7.05507
       H     9.90715   16.94484   -9.39677
       O     9.31751   17.71737   -9.19973
      H1     8.51067   17.38679   -9.56475

