90
frame 0 | Written by MDAnalysis XYZWriter (release 2.4.3)
       H    -9.82564   11.96970   -9.68655
       O    -9.11571   11.30245   -9.61045
      H1    -8.79702   11.12339  -10.52094
       H   -12.64978   19.48352   -8.17908
       O   -12.82893   19.64742   -9.13713
      H1   -12.59165   18.79161   -9.50667
       H    -8.31832   13.24396  -14.16604
       O    -8.53619   12.32181  -14.37791
      H1    -9.52360   12.38753  -14.36284
       H    -7.68202   11.81559   -8.86950
       O    -6.87979   12.17221   -8.39404
      H1    -6.86389   11.55564   -7.64995
       H   -13.04118    9.43038  -12.27799
       O   -12.85518    9.03725  -11.44792
      H1   -12.59897    9.83858  -10.92188
       H   -14.71651   16.38535  -13.05145
       O   -14.33474   17.04041  -12.49006
      H1   -13.92907   17.65426  -13.13789
       H    -5.75596   14.20145  -13.76127
       O    -4.80936   14.15088  -13.92115
      H1    -4.57930   13.24924  -14.13760
       H    -5.78996   12.74727   -9.61595
       O    -5.27031   13.30994  -10.26600
      H1    -5.69648   12.97943  -11.07623
       H   -12.62243   19.83739  -13.75921
       O   -12.43217   18.85438  -13.74906
      H1   -11.45851   18.74363  -13.58822
       H    -7.52127   18.73330   -7.83032
       O    -7.11706   18.00202   -7.35022
      H1    -7.31208   17.17283   -7.77187
       H   -11.17499   16.41779   -6.95402
       O   -10.24322   16.51178   -6.62085
      H1   -10.29592   16.37305   -5.68167
       H   -10.42941   14.28519  -10.75320
       O   -11.06435   13.81937  -10.22904
      H1   -11.19872   14.57381   -9.59285
       H    -9.45065   16.25894  -11.72339
       O    -9.39144   15.29948  -11.58145
      H1    -8.87648   15.18459  -10.75038
       H   -12.39995   14.94490   -7.41405
       O   -12.50735   15.54180   -8.24419
      H1   -13.12528   16.22937   -7.82356
       H    -7.72905   15.15031  -13.02673
       O    -7.43629   14.46268  -13.67861
      H1    -7.22168   14.92735  -14.49826
       H   -15.46711   15.01592   -8.86035
       O   -15.72471   14.22254   -8.40283
      H1   -16.06827   14.57045   -7.56137
       H    -5.34344   16.24700  -10.12972
       O    -4.87910   15.85491   -9.32471
      H1    -4.89583   14.89492   -9.45633
       H    -7.68851   14.40146   -8.70458
       O    -7.54238   15.29391   -9.06488
      H1    -6.59816   15.50054   -8.91152
       H   -11.76926   15.01694  -12.30026
       O   -12.27434   15.24697  -13.13154
      H1   -12.94156   15.83894  -12.79219
       H   -12.11282   12.10356  -14.31287
       O   -11.27265   12.52655  -13.99721
      H1   -11.36400   13.50356  -14.08520
       H   -12.73670   16.70917   -9.81375
       O   -12.43454   17.31975  -10.50689
      H1   -13.26078   17.38419  -11.06120
       H    -8.74283   13.90555   -6.48178
       O    -9.45029   13.96072   -7.20043
      H1    -9.36166   14.92221   -7.32087
       H    -7.43640   11.72769  -12.70872
       O    -7.06454   11.42519  -11.89371
      H1    -6.15262   11.28421  -12.15906
       H   -10.73390    9.16679   -7.99302
       O    -9.88855    8.95764   -8.40953
      H1    -9.57923    9.77875   -8.79726
       H    -9.93524   18.99198  -12.19487
       O    -9.88421   17.99589  -12.03320
      H1   -10.66667   17.92888  -11.48511
       H   -13.82672   11.84439   -9.28898
       O   -13.71941   12.29267  -10.13595
      H1   -12.78889   12.55405  -10.12912
       H   -12.30443   13.76165   -5.39124
       O   -12.03951   13.80693   -6.31663
      H1   -11.02726   13.63814   -6.31573
       H    -6.84908   17.24954  -12.96093
       O    -7.46421   17.13284  -13.74737
      H1    -8.26080   17.59575  -13.46280
       H   -16.01909   11.44359  -11.36224
       O   -15.69736   12.33978  -11.72804
      H1   -14.87698   12.44149  -11.23030
       H   -12.32358   12.45027   -7.19936
       O   -12.52474   11.52480   -7.40030
      H1   -13.50611   11.53505   -7.10673

