90
frame 2 | Written by MDAnalysis XYZWriter (release 2.4.3)
       H    -1.75958   -3.23654   12.46337
       O    -2.11488   -2.39675   12.22749
      H1    -1.53322   -1.75842   12.64920
       H     0.60112   -7.37270   14.28822
       O     1.28094   -6.78909   14.68998
      H1     2.10443   -7.06375   14.31501
       H    -4.57476   -6.08308   12.29246
       O    -5.44128   -5.70659   12.51058
      H1    -6.01648   -6.15713   11.87505
       H    -7.50693   -3.55264   13.13536
       O    -6.63573   -3.55023   13.71364
      H1    -6.19147   -4.37152   13.41542
       H    -1.91676  -11.83494   18.56612
       O    -2.80821  -11.47038   18.76511
      H1    -2.82711  -10.55715   18.40057
       H    -0.89470   -9.93874   11.18800
       O    -0.48566   -9.08184   11.00874
      H1     0.40360   -9.40234   10.74669
       H    -3.44324  -10.60299   11.81041
       O    -2.74279  -11.09734   11.33846
      H1    -3.28818  -11.64726   10.69132
       H    -8.44267   -8.41098   15.40906
       O    -7.66936   -8.13719   14.89184
      H1    -7.10994   -8.90102   15.08196
       H    -2.52559  -12.14889   12.69178
       O    -2.47622  -12.92495   13.28992
      H1    -3.34399  -13.30256   13.25582
       H    -0.46975   -4.30545   13.56076
       O    -1.38234   -4.58649   13.72290
      H1    -1.73324   -4.07995   14.51646
       H    -4.07485  -12.55957   15.77665
       O    -3.60854  -11.71299   15.67275
      H1    -3.11148  -11.84615   14.88167
       H    -3.34060   -8.61360   16.99695
       O    -3.26743   -8.83051   17.94845
      H1    -2.40058   -8.58262   18.22445
       H    -3.85092   -8.95195   13.73784
       O    -3.86797   -9.27426   12.86664
      H1    -3.45441   -8.50329   12.40771
       H     0.08701  -11.73078   15.46361
       O    -0.34421  -11.37299   14.69902
      H1    -0.97488  -12.01470   14.39833
       H    -2.78884   -6.89221   10.68015
       O    -2.79378   -6.96603   11.66483
      H1    -1.88673   -6.72607   11.89637
       H    -0.68726   -8.49387   13.08061
       O    -0.54001   -8.46117   14.01627
      H1    -0.45730   -9.32357   14.41926
       H     1.14022  -11.42444   13.73017
       O     1.94522  -11.47419   13.17179
      H1     2.29397  -12.33582   13.48225
       H    -6.22837  -10.55728   13.13001
       O    -6.42344  -10.64468   12.19589
      H1    -6.59629   -9.74256   11.86412
       H    -5.23915  -10.91594   15.46895
       O    -6.18302  -10.73687   15.23989
      H1    -6.64749  -11.12444   16.00121
       H    -0.99067   -5.13579   19.26409
       O    -1.84379   -4.87503   18.85174
      H1    -1.54903   -4.88728   17.94914
       H    -3.45689   -6.61789   15.15886
       O    -3.14905   -7.52507   15.27230
      H1    -2.47414   -7.72899   14.55994
       H     1.29078   -5.40304   12.04205
       O     1.41941   -4.82347   12.80335
      H1     1.49265   -5.40893   13.56062
       H    -0.49597   -7.15557   17.65130
       O    -0.53232   -8.05319   17.94360
      H1     0.23030   -8.57060   17.57140
       H    -3.19990   -4.13517   16.16606
       O    -2.37858   -3.61863   16.19694
      H1    -2.59332   -2.87004   16.71328
       H    -0.52845   -4.89130   16.02397
       O    -0.02386   -5.39684   16.66505
      H1     0.62311   -5.95006   16.14415
       H     0.13998   -7.27096   10.58281
       O     0.57811   -6.38840   10.49118
      H1     0.10713   -6.02252    9.77277
       H    -7.16345   -4.85537   14.88342
       O    -7.52964   -5.52447   15.44348
      H1    -7.30106   -6.41997   15.14971
       H    -4.06211   -7.35785   18.34198
       O    -4.50074   -6.48059   18.50508
      H1    -3.77472   -6.03197   19.03602
       H    -5.54683   -5.03863   15.83821
       O    -4.60682   -5.10036   16.12814
      H1    -4.71138   -5.64907   16.91143
       H     1.42466   -8.30751   16.02308
       O     1.78512   -9.00999   16.67916
      H1     2.58221   -8.61842   17.07722

