90
frame 1 | Written by MDAnalysis XYZWriter (release 2.4.3)
       H   -19.22634   12.49027    2.23532
       O   -19.44314   12.10752    3.09544
      H1   -19.05491   11.23279    2.96155
       H   -18.08460    5.79764    9.96244
       O   -18.48930    6.68413   10.16557
      H1   -18.66184    7.02697    9.28156
       H   -17.28899   15.98276    3.01324
       O   -17.52080   15.30225    2.34413
      H1   -18.38848   15.66460    2.01964
       H   -14.19686   10.05362    6.87720
       O   -15.03917    9.54031    6.85894
      H1   -15.09883    9.27700    7.81500
       H   -18.79315    9.77348    7.02315
       O   -18.54069   10.66412    7.15818
      H1   -17.58891   10.59764    7.16974
       H   -15.62930   13.40664    3.81914
       O   -16.16396   13.47617    4.59645
      H1   -17.06811   13.70604    4.20359
       H   -15.98234    7.36851    4.82709
       O   -15.52395    7.29786    5.70207
      H1   -15.30880    8.21147    6.02268
       H   -17.82388    9.33509    3.64663
       O   -18.65114    9.49245    3.16764
      H1   -18.50297    9.05904    2.33885
       H   -19.25615   10.04197    9.62201
       O   -18.70320    9.81306   10.39347
      H1   -18.32547    9.05901    9.93110
       H   -15.87066    9.37212   -2.65974
       O   -16.09786    8.56580   -2.18128
      H1   -16.18728    7.85379   -2.87514
       H   -19.05400   12.85155   -0.33708
       O   -18.97568   13.18918    0.55598
      H1   -18.07645   13.44504    0.65399
       H   -15.03778    8.78978   -0.77590
       O   -14.27873    9.04449   -0.21497
      H1   -14.76257    9.40940    0.53763
       H   -15.09080   12.75266   -0.67319
       O   -15.77761   13.28544   -0.23644
      H1   -15.42348   14.17501   -0.19072
       H   -12.62784   11.79090    6.49280
       O   -12.70886   10.79356    6.56429
      H1   -12.75824   10.53178    5.60765
       H   -16.08224    4.20570    0.95629
       O   -15.15415    4.05719    0.89565
      H1   -14.79551    4.93158    0.81982
       H   -16.31264    6.36366    6.94287
       O   -16.47789    5.64327    7.66415
      H1   -15.56812    5.51234    7.96658
       H   -11.85979    9.76470    3.09942
       O   -12.10828    9.39876    3.95977
      H1   -11.29223    9.00014    4.28296
       H   -15.71481   11.41653    0.96731
       O   -15.78864   10.56298    1.40065
      H1   -15.79528   10.79937    2.34306
       H   -16.19047    3.97497    3.86796
       O   -15.27651    3.99370    3.55607
      H1   -15.33616    4.11934    2.56135
       H   -18.03469    8.85143   -0.00871
       O   -18.47495    9.62800    0.35571
      H1   -17.69227   10.02741    0.79150
       H   -15.77785    6.06816    2.88082
       O   -16.47790    6.66063    2.99351
      H1   -16.66902    6.89810    2.11892
       H   -16.92918    6.40615   -0.54621
       O   -17.11595    7.07924    0.13021
      H1   -17.97779    6.71529    0.42318
       H   -13.32804    6.20148   -0.05141
       O   -13.57025    6.43302    0.87795
      H1   -13.82659    7.38194    0.73820
       H   -14.31569    6.12146    5.74243
       O   -13.51900    5.55915    5.61568
      H1   -13.73851    5.21159    4.71055
       H   -14.06417   13.32659    2.05372
       O   -14.09715   12.64725    2.73611
      H1   -13.37249   12.08814    2.38151
       H   -19.26173   12.30685    6.20907
       O   -19.49476   13.04848    5.65896
      H1   -19.24000   12.71324    4.78831
       H   -19.80535    7.06887    7.60864
       O   -19.24876    7.81452    7.29288
      H1   -18.66560    7.27665    6.69908
       H   -18.24334   13.63562    8.70508
       O   -19.11324   13.31261    8.94351
      H1   -19.09086   12.41051    8.64787
       H   -17.78139    3.49020    5.39933
       O   -17.82587    3.78401    4.46561
      H1   -18.22780    4.61956    4.52568
       H   -15.99226   11.54778    4.18238
       O   -16.28343   10.58377    4.14402
      H1   -15.43328   10.17058    4.42948

