90
frame 1 | Written by MDAnalysis XYZWriter (release 2.4.3)
       H    -2.11658   13.40500   -2.61021
       O    -2.02306   13.55447   -1.65220
      H1    -1.99452   14.52469   -1.57825
       H    -3.11088    9.55527   -6.21620
       O    -3.72243    8.80732   -6.12771
      H1    -3.40662    8.22003   -6.77679
       H    -3.68948   12.29658   -6.46841
       O    -2.93240   11.70788   -6.49334
      H1    -2.14693   12.16208   -6.93442
       H    -4.74360   16.19759   -5.29584
       O    -3.93174   16.47608   -4.82744
      H1    -3.94077   15.85784   -3.98748
       H    -8.03364   11.88901   -8.74497
       O    -7.52924   12.42027   -8.13731
      H1    -7.25545   11.82675   -7.42636
       H    -6.72177   16.98584   -6.28083
       O    -6.48783   16.27123   -5.69742
      H1    -7.12452   15.55338   -5.70176
       H    -4.53663   11.72081   -0.24783
       O    -5.37600   12.06502   -0.56904
      H1    -5.94704   11.78080    0.09984
       H    -2.87626   15.72063   -0.27079
       O    -2.10798   16.10432   -0.75429
      H1    -2.51765   16.13518   -1.66783
       H    -7.24890   15.29580   -0.79289
       O    -6.49626   15.72529   -1.23123
      H1    -6.91884   15.95852   -2.06527
       H    -6.38905   12.79980   -9.43042
       O    -5.65220   13.21670   -9.92747
      H1    -5.94945   12.96325  -10.82198
       H    -5.33653   14.96243   -2.06018
       O    -4.62607   14.71235   -2.72991
      H1    -4.22211   14.06886   -2.11797
       H    -7.82719   18.64524   -8.07150
       O    -7.30994   17.99584   -7.59934
      H1    -7.69550   17.13754   -7.81021
       H    -0.41005   12.86675   -8.74470
       O    -0.66518   12.53722   -7.81427
      H1    -0.61707   13.41615   -7.38875
       H    -1.77094   13.29286   -4.74130
       O    -1.44808   12.63599   -4.15068
      H1    -2.11518   11.90162   -4.33906
       H    -3.27412   18.50348   -8.44394
       O    -2.61106   17.78845   -8.36070
      H1    -2.96888   17.03701   -8.77982
       H    -1.72776   15.40386   -6.48100
       O    -2.24338   14.64342   -6.16835
      H1    -3.14688   15.02860   -6.17339
       H    -8.34413   11.00385   -4.03493
       O    -7.84296   11.67640   -3.48949
      H1    -6.94326   11.25913   -3.42163
       H    -4.92310   16.36388  -10.40063
       O    -4.47653   15.69221   -9.82218
      H1    -4.83945   14.81204   -9.98998
       H    -8.98592   14.43770   -4.33806
       O    -8.17375   14.12966   -4.73771
      H1    -8.11797   13.35081   -4.15901
       H    -7.63816   14.02265   -8.39756
       O    -7.41194   14.92004   -8.70148
      H1    -6.44687   14.88114   -8.80013
       H    -1.46032   17.11694   -4.67198
       O    -1.15628   16.61505   -3.88623
      H1    -0.49858   16.01742   -4.33364
       H    -9.18647   13.82991   -6.68492
       O   -10.05017   14.22785   -6.95313
      H1    -9.83911   15.14908   -6.94621
       H    -2.96398    9.42999   -3.69521
       O    -2.29450   10.10671   -3.53941
      H1    -2.07291    9.97080   -2.61408
       H    -3.77964   11.34520   -8.88841
       O    -3.51379   10.64277   -9.45473
      H1    -4.37229   10.21743   -9.67967
       H    -5.16248   11.41045   -2.18335
       O    -4.86492   11.40527   -3.11231
      H1    -4.01918   10.94124   -3.06040
       H    -8.68236    8.73094   -5.26789
       O    -9.09901    9.34987   -4.61102
      H1    -8.82400    9.08574   -3.72276
       H    -4.73813   13.39024   -4.65249
       O    -5.17140   13.19231   -5.48585
      H1    -6.08083   13.16655   -5.23874
       H    -3.28878   13.67810  -11.19530
       O    -2.78820   12.90650  -11.04477
      H1    -3.42823   12.28962  -10.66462
       H    -6.19611   10.04865   -5.91456
       O    -6.82012   10.23317   -6.57513
      H1    -7.11726    9.33970   -6.85649
       H    -0.16901   11.25496   -6.47973
       O    -0.55994   10.54226   -5.96221
      H1    -1.50229   10.76856   -6.07266

