90
frame 1 | Written by MDAnalysis XYZWriter (release 2.4.3)
       H   -17.64870   -7.85116   -3.07822
       O   -17.01435   -7.14968   -3.24150
      H1   -16.24760   -7.74057   -3.49080
       H   -12.69587   -8.69956   -1.78806
       O   -12.43216   -9.30505   -2.52100
      H1   -11.48194   -9.26536   -2.45427
       H   -17.21087   -7.08745   -0.02207
       O   -17.08585   -6.24368    0.47882
      H1   -16.52352   -6.60441    1.17526
       H   -13.96349   -4.00829   -0.16919
       O   -13.00236   -4.27781   -0.21021
      H1   -12.92331   -4.95209    0.51268
       H   -13.26152   -7.22607    4.57268
       O   -12.92098   -6.49544    3.99534
      H1   -13.75008   -6.04450    3.79905
       H   -19.15492  -12.40381    2.79166
       O   -19.47565  -11.95786    2.01412
      H1   -19.48749  -11.06068    2.32240
       H   -16.24504  -12.43590   -1.21654
       O   -16.54893  -13.07010   -0.53475
      H1   -17.49609  -12.94329   -0.60734
       H   -12.89842  -10.96985   -1.20763
       O   -13.48986  -11.03020   -0.42363
      H1   -13.62841  -11.99784   -0.37594
       H   -19.31936   -9.49381    6.74674
       O   -18.36095   -9.30339    6.88797
      H1   -18.21585   -8.49513    6.46036
       H   -18.07662   -8.31097    4.18211
       O   -17.75560   -7.40596    4.30375
      H1   -18.23701   -6.78296    3.71557
       H   -16.33402   -7.71069    3.18540
       O   -15.74641   -7.28712    2.53658
      H1   -15.20534   -7.94768    2.11232
       H   -16.12071   -4.59541   -0.11725
       O   -15.79463   -3.69061   -0.35194
      H1   -15.59481   -3.15955    0.44859
       H   -15.95726   -5.40076    3.54294
       O   -15.79356   -4.66822    4.09372
      H1   -16.12918   -5.01941    4.95016
       H   -14.86258   -1.27018    1.20886
       O   -15.44389   -2.00660    1.59304
      H1   -14.97682   -2.34109    2.40603
       H   -17.49384  -11.26002    1.66862
       O   -16.65179  -10.91708    1.30460
      H1   -16.37790  -11.65230    0.76220
       H   -13.77925   -9.70878    1.25411
       O   -14.36352   -9.59467    2.07401
      H1   -15.12319  -10.17267    1.79239
       H   -13.63744   -7.34388    6.77367
       O   -13.59908   -6.83972    7.61105
      H1   -13.56927   -5.90372    7.28145
       H   -18.70327   -4.37938    2.62341
       O   -18.96189   -5.29132    2.35794
      H1   -18.23877   -5.40197    1.78253
       H   -11.50519  -10.13476    0.37803
       O   -11.33004   -9.18495    0.31080
      H1   -10.43534   -9.15282    0.68584
       H   -12.29852   -3.84436    6.70071
       O   -12.75451   -4.59000    6.39068
      H1   -12.53704   -4.70730    5.46602
       H   -18.62580   -9.01667    0.01308
       O   -17.71907   -8.87127   -0.33745
      H1   -17.25707   -9.63437    0.09563
       H   -11.79151   -7.35564    1.30845
       O   -11.72376   -6.40925    1.58774
      H1   -12.00310   -6.45143    2.51052
       H   -16.23746  -11.62006    4.53724
       O   -15.56043  -11.32136    5.09858
      H1   -14.85278  -11.25357    4.43800
       H   -13.08417   -6.40351   -2.38837
       O   -12.57050   -6.59886   -1.62245
      H1   -12.75192   -5.87745   -0.97475
       H   -13.57563   -9.22653    6.20292
       O   -14.16747   -8.65828    5.67964
      H1   -14.97214   -9.19797    5.55915
       H   -12.47425  -11.43426    3.70180
       O   -13.36615  -11.77285    3.40957
      H1   -13.56506  -10.91310    2.91958
       H   -13.90001   -2.14648    4.82341
       O   -14.00794   -2.59602    3.99033
      H1   -14.37900   -3.46549    4.41227
       H   -10.07547   -5.24869    2.16596
       O    -9.30790   -4.97227    2.70797
      H1    -9.16039   -5.68202    3.33066
       H   -16.35112   -5.91860    7.47165
       O   -16.38765   -5.38624    6.61412
      H1   -17.30682   -5.48899    6.34748
       H   -12.25880  -14.09013    1.46788
       O   -13.04446  -14.21967    2.00816
      H1   -13.15559  -13.29951    2.40924

