90
frame 0 | Written by MDAnalysis XYZWriter (release 2.4.3)
       H   -18.46912   -7.61891   -3.33213
       O   -17.98784   -6.94984   -2.75781
      H1   -17.26581   -7.48230   -2.42258
       H   -14.57173   -4.06580   -2.83909
       O   -15.21549   -3.36769   -2.54173
      H1   -15.51393   -3.72821   -1.70672
       H   -17.82648   -6.33769   -0.50741
       O   -17.76725   -5.64787    0.14669
      H1   -17.35155   -6.13966    0.90143
       H   -11.37743   -3.60681   -0.92262
       O   -11.46507   -2.64232   -0.92971
      H1   -10.65424   -2.29521   -0.56547
       H   -14.93144   -0.39223   -1.82210
       O   -14.86503   -0.67581   -2.72697
      H1   -14.99717   -1.60674   -2.69394
       H   -13.49489   -4.55323    0.09480
       O   -12.70102   -5.10970   -0.12558
      H1   -12.40398   -5.38878    0.71054
       H   -13.32990   -7.51510    4.50221
       O   -13.34303   -6.77398    3.87617
      H1   -13.88210   -6.11123    4.33770
       H   -18.31814   -2.50247    4.06464
       O   -18.69789   -2.95930    3.31500
      H1   -19.29821   -2.36831    2.88646
       H   -12.78907   -0.15474    0.12256
       O   -13.06783   -1.07646    0.29868
      H1   -12.49266   -1.65333   -0.27351
       H   -19.30478   -4.12041    4.58589
       O   -19.20044   -4.67434    5.41312
      H1   -19.29237   -4.01080    6.14392
       H   -18.14711   -8.51616    3.58885
       O   -18.25928   -7.91025    4.36923
      H1   -19.19564   -7.64516    4.41209
       H   -17.26023   -7.00587    3.15934
       O   -16.77184   -6.64090    2.42739
      H1   -15.90589   -7.02222    2.61137
       H   -17.64385    0.09011    2.28969
       O   -16.81738    0.50238    2.09943
      H1   -16.23075   -0.26809    1.96737
       H   -16.12795   -4.85541    0.22245
       O   -15.42126   -4.22087    0.07573
      H1   -15.73033   -3.45043    0.53737
       H   -15.75562   -5.17525    3.74497
       O   -15.16068   -4.79683    4.43364
      H1   -15.71161   -4.90529    5.18481
       H   -14.34277   -1.34080    1.15880
       O   -15.16342   -1.60618    1.65173
      H1   -14.62009   -1.68028    2.47723
       H   -17.52864  -10.30022    2.11918
       O   -16.79566  -10.37224    1.52235
      H1   -16.77169  -11.32934    1.29515
       H   -13.60288  -10.05787    1.29477
       O   -14.03189   -9.69405    2.08291
      H1   -15.02804   -9.67205    1.81814
       H   -19.14621   -4.51931    2.23988
       O   -19.53871   -5.37141    1.96836
      H1   -18.89636   -5.73694    1.27593
       H   -18.80487   -1.32306   -1.62591
       O   -17.82992   -1.27685   -1.90476
      H1   -17.42769   -1.11477   -1.06297
       H   -11.87982   -8.17758   -0.46317
       O   -11.06514   -8.43836   -0.00106
      H1   -10.77585   -9.16314   -0.58478
       H   -12.13338   -1.98762    3.01685
       O   -11.75817   -1.23931    2.60826
      H1   -11.79335   -1.57417    1.68572
       H   -18.43941   -8.91588   -0.37680
       O   -17.51803   -9.05433   -0.68829
      H1   -17.13427   -9.60760    0.04037
       H   -10.90628   -7.16661    1.38116
       O   -11.24134   -6.30592    1.69435
      H1   -11.92647   -6.56810    2.30309
       H   -13.70518   -4.77460   -4.91676
       O   -13.27594   -4.84610   -3.98113
      H1   -12.55894   -4.18332   -3.95922
       H   -12.98553   -6.62987   -2.84874
       O   -12.84611   -7.09062   -2.01877
      H1   -12.76564   -6.32722   -1.42818
       H   -14.12422   -2.09208    4.88570
       O   -13.85515   -2.37549    4.04501
      H1   -14.50187   -3.14862    3.96739
       H   -17.52223   -5.02377   -3.78895
       O   -17.42002   -4.07191   -3.86304
      H1   -16.72640   -3.79411   -3.22552
       H   -11.81026   -2.16892   -2.98923
       O   -12.39594   -1.63718   -3.55498
      H1   -13.08176   -1.24843   -2.96970
       H   -15.15308   -9.13738   -3.57640
       O   -15.03901   -8.45120   -4.25476
      H1   -15.84001   -8.41747   -4.76150

