90
frame 1 | Written by MDAnalysis XYZWriter (release 2.4.3)
       H    14.49552   -9.35845  -12.85161
       O    14.34611   -8.86171  -13.67556
      H1    14.70350   -8.03983  -13.32683
       H    17.97680  -17.05932  -11.65762
       O    17.59745  -17.34963  -10.77994
      H1    16.61213  -17.28137  -10.95488
       H    15.47286  -19.17075  -17.11495
       O    15.95265  -18.39799  -17.35215
      H1    15.90616  -17.79016  -16.59176
       H    12.62611  -10.75175   -9.51445
       O    13.55265  -10.91257   -9.25328
      H1    13.77763  -10.12919   -8.72448
       H    13.97201  -19.16934   -8.46830
       O    14.84310  -19.51277   -8.71811
      H1    15.21337  -19.73988   -7.82451
       H    16.88947  -16.32425  -15.36788
       O    16.14282  -16.85650  -15.19638
      H1    16.25295  -17.71840  -14.68460
       H    11.73197  -13.58518  -15.87605
       O    12.51147  -13.95024  -16.22739
      H1    13.13038  -13.67177  -15.49753
       H    10.45397  -10.18716   -9.71029
       O    11.10355  -10.27953  -10.42595
      H1    10.93474  -11.15742  -10.84866
       H    17.40597  -14.00624  -10.45876
       O    18.22317  -13.80381   -9.95428
      H1    18.53211  -14.71054   -9.86434
       H    18.44395  -10.64746  -12.64877
       O    18.44208  -11.57601  -12.50625
      H1    18.59856  -11.77969  -11.58542
       H    11.68843  -16.10833  -11.85196
       O    12.05578  -15.39351  -12.41928
      H1    12.97867  -15.38136  -12.12613
       H    17.45858  -12.63280   -7.27991
       O    17.78419  -11.89863   -7.81892
      H1    17.93920  -12.35304   -8.62356
       H    12.89883  -16.87759  -13.70998
       O    12.99547  -17.56112  -14.41374
      H1    13.09832  -16.95650  -15.15633
       H    18.58667  -16.45579   -9.56454
       O    19.16886  -15.93318   -8.96032
      H1    18.90343  -16.20759   -8.02306
       H    15.14037  -14.11064  -13.93337
       O    14.60854  -14.83472  -13.63211
      H1    15.12627  -15.57188  -14.12382
       H    10.90729  -17.53258   -9.79646
       O    10.28942  -16.77327   -9.99537
      H1    10.01331  -16.59184   -9.06734
       H    15.58284  -15.31695  -10.64477
       O    15.73423  -14.42135  -11.05860
      H1    15.34530  -14.51815  -11.92070
       H    15.84356  -11.01490  -15.20480
       O    16.71473  -11.18747  -14.72774
      H1    16.51414  -11.09110  -13.79713
       H    16.82685  -10.52598   -8.92023
       O    16.90243   -9.59803   -9.27418
      H1    17.85168   -9.37196   -9.31514
       H    11.88889  -13.53927   -8.57762
       O    10.91860  -13.47710   -8.67923
      H1    10.62466  -14.38832   -8.71624
       H    11.16164  -19.77910   -8.94382
       O    11.71862  -19.02833   -8.99680
      H1    12.11994  -19.08766   -9.88845
       H    15.81532  -14.43189   -6.37632
       O    16.72409  -14.32103   -6.73057
      H1    16.49301  -14.68927   -7.62476
       H    12.31411  -15.60081  -16.31161
       O    12.29630  -16.53241  -16.64769
      H1    11.84942  -17.03940  -15.91952
       H    13.86650  -12.70606   -8.20749
       O    13.52559  -13.58801   -8.26835
      H1    13.28216  -13.91073   -7.37320
       H    18.28836  -14.31149  -13.76319
       O    18.28112  -13.67172  -14.43706
      H1    18.09299  -12.92051  -13.88616
       H    15.97386   -9.88906  -10.95969
       O    15.27334  -10.20214  -11.52017
      H1    14.76855  -10.51687  -10.78711
       H    14.01420  -11.78778  -17.06141
       O    14.98380  -11.75512  -17.28683
      H1    15.01902  -12.55032  -17.87082
       H    10.98085  -13.12624  -10.62965
       O    10.58689  -12.96616  -11.54710
      H1    10.96474  -13.65379  -12.10313
       H    16.83011  -13.47220  -15.50920
       O    15.95442  -13.80717  -15.83785
      H1    15.62230  -12.93670  -16.18694
       H    14.24277  -18.39490  -11.26939
       O    14.89232  -17.83469  -10.86332
      H1    15.07159  -18.32573  -10.03528

