90
frame 0 | Written by MDAnalysis XYZWriter (release 2.4.3)
       H    -9.52738   -6.05599  -18.93862
       O    -9.87441   -6.97642  -18.76366
      H1    -9.69263   -7.29539  -19.71178
       H   -15.91276   -0.96333  -17.39107
       O   -16.25123   -0.45870  -18.17216
      H1   -17.13747   -0.84327  -18.29574
       H   -15.81176   -2.78629  -15.12685
       O   -15.19210   -3.50443  -15.02560
      H1   -15.12127   -3.66466  -15.97833
       H   -11.67064   -0.05109  -16.15898
       O   -11.45998   -0.11441  -17.11207
      H1   -12.20177   -0.56957  -17.40965
       H   -19.27629   -5.38022  -16.18226
       O   -19.47894   -5.20874  -17.08732
      H1   -19.04086   -5.85691  -17.57976
       H   -14.83315   -2.86833  -17.99375
       O   -15.54620   -3.58375  -17.85625
      H1   -15.02047   -4.33735  -18.24975
       H   -17.20996   -7.88367  -17.60668
       O   -17.21033   -6.92425  -17.49855
      H1   -16.84263   -6.85449  -16.58047
       H   -13.65290   -2.32987  -19.78109
       O   -13.02299   -2.37734  -19.01103
      H1   -12.11974   -2.09787  -19.31558
       H   -11.56979   -1.84025  -14.17298
       O   -11.99904   -1.11517  -13.73451
      H1   -11.34959   -0.42319  -13.62681
       H    -9.50909   -4.56753  -14.69832
       O    -8.59412   -4.72813  -14.42008
      H1    -8.20564   -5.23298  -15.13492
       H   -19.30946   -0.47633  -19.67855
       O   -19.28481   -0.64352  -18.71653
      H1   -19.63934   -1.52967  -18.65398
       H   -16.64113    2.39879  -15.88510
       O   -17.11530    2.00905  -15.12890
      H1   -16.56993    2.34017  -14.38646
       H   -12.93550    3.92649  -18.75851
       O   -13.30889    4.84188  -18.71125
      H1   -13.69385    4.83108  -17.86007
       H   -13.33592    3.91262  -15.33044
       O   -13.96505    4.33282  -15.94078
      H1   -14.46415    3.58199  -16.30089
       H   -10.66195    1.58338  -16.58818
       O   -10.24041    2.17839  -15.95894
      H1    -9.33460    1.83575  -15.95578
       H   -14.53592   -3.55619  -11.83181
       O   -14.89263   -4.31739  -12.33182
      H1   -15.03637   -4.06498  -13.27504
       H   -13.34283   -8.83909  -18.72294
       O   -14.22034   -9.16206  -18.48986
      H1   -14.09435   -9.24279  -17.52838
       H    -9.13422   -3.08911  -16.68751
       O    -9.69126   -3.91331  -16.86784
      H1    -9.25015   -4.22191  -17.66568
       H   -16.21861    2.38433  -17.68791
       O   -15.36342    2.19441  -17.27904
      H1   -15.17228    1.30596  -17.62195
       H   -17.08775   -3.68665  -18.71592
       O   -17.89038   -3.91641  -19.23941
      H1   -18.49437   -4.17345  -18.52696
       H   -13.13883    0.13381  -13.91759
       O   -13.75021    0.80831  -14.23335
      H1   -14.29196    1.07476  -13.49769
       H   -15.43555   -6.04667  -15.15352
       O   -16.28948   -6.47022  -14.96486
      H1   -15.88435   -7.33068  -14.71053
       H    -7.90284   -1.56624  -15.82208
       O    -8.30652   -1.54571  -16.72792
      H1    -7.39179   -1.61824  -17.08813
       H   -15.43535   -6.66250  -18.35523
       O   -14.84346   -5.98050  -18.83078
      H1   -13.90951   -6.21369  -18.62369
       H   -12.88872   -5.24786  -15.42450
       O   -13.44681   -5.88211  -14.92134
      H1   -12.95634   -6.68616  -14.94738
       H   -11.88806    2.18864  -19.74253
       O   -11.39890    3.05283  -19.76172
      H1   -10.98618    3.10036  -18.86486
       H   -11.46224   -3.89474  -16.79529
       O   -12.39692   -4.05251  -16.72901
      H1   -12.66929   -3.40921  -17.37795
       H   -14.06635   -2.16856  -15.78896
       O   -14.00478   -1.27489  -16.21127
      H1   -14.00495   -0.71782  -15.42529
       H   -19.21715   -0.28247  -16.95104
       O   -19.39681    0.07538  -16.09303
      H1   -18.74030    0.69190  -15.88631
       H   -12.40805   -5.85535  -17.64410
       O   -12.34992   -6.57420  -18.29688
      H1   -11.43160   -6.71955  -18.52142

