90
frame 2 | Written by MDAnalysis XYZWriter (release 2.4.3)
       H   -13.97383   13.27563  -12.87087
       O   -13.96050   12.39025  -12.57969
      H1   -14.84729   11.99117  -12.79273
       H   -15.45374   15.09249  -13.03842
       O   -16.13189   15.38249  -12.36177
      H1   -16.38411   14.53617  -11.91198
       H   -10.90610   16.48826   -9.12797
       O   -11.11206   16.64767  -10.10595
      H1   -10.21719   16.89167  -10.41016
       H   -18.95502   16.65526   -4.51072
       O   -18.70843   17.31842   -5.21158
      H1   -19.36761   17.96901   -4.96984
       H   -18.11062   16.53332  -12.22237
       O   -18.75562   16.98765  -12.77376
      H1   -18.35357   16.88680  -13.65243
       H   -15.53907   18.20592  -18.10271
       O   -15.86882   17.56300  -17.47260
      H1   -16.44567   17.06544  -18.04313
       H   -10.88527   15.44715  -13.77992
       O   -11.02506   14.50751  -13.98728
      H1   -10.50227   14.43743  -14.81485
       H   -13.77543   16.74657   -4.73656
       O   -13.59328   17.58034   -4.27362
      H1   -13.89899   17.40248   -3.35942
       H    -9.85575   17.47035  -13.09836
       O    -9.51973   16.64836  -12.75076
      H1    -8.56435   16.58994  -12.89018
       H   -11.03784   16.76652   -6.50851
       O   -11.49948   16.46789   -7.28877
      H1   -12.34963   16.94942   -7.24946
       H   -12.89905   14.45190  -14.47653
       O   -13.82778   14.77550  -14.29371
      H1   -14.23429   14.79532  -15.16409
       H   -17.79442   13.78609  -11.52825
       O   -17.15479   13.13684  -11.29360
      H1   -17.03244   13.30302  -10.24649
       H   -13.36216   15.04747  -10.05846
       O   -14.18968   15.05732   -9.59445
      H1   -14.81264   15.55620  -10.17965
       H   -13.72391   16.76616  -19.76509
       O   -13.59591   16.60961  -18.81826
      H1   -14.42520   16.78848  -18.31071
       H   -12.02237   16.39009  -17.77676
       O   -11.24984   16.52439  -17.16602
      H1   -10.91974   15.63993  -16.98375
       H   -15.22848   19.83631  -11.51568
       O   -15.59952   18.95456  -11.20993
      H1   -16.51734   19.12598  -10.91651
       H   -15.28368   16.25961   -6.22170
       O   -15.26358   15.60714   -5.53293
      H1   -14.71895   14.87612   -5.90191
       H   -18.82117   17.54219  -15.86682
       O   -17.99537   17.76711  -15.36544
      H1   -17.31466   17.79286  -16.06160
       H   -16.80641   18.11879   -4.92881
       O   -16.28251   18.80727   -4.52800
      H1   -15.31495   18.65050   -4.64392
       H   -19.15130   17.54253   -8.48159
       O   -19.59844   16.85319   -7.92577
      H1   -19.40993   17.12848   -6.98819
       H   -19.28774   19.03628   -9.94606
       O   -18.41873   18.86078   -9.48283
      H1   -18.41012   19.62338   -8.85631
       H   -14.39662   18.31636   -7.93913
       O   -13.98903   17.43583   -7.71432
      H1   -14.03780   16.94043   -8.57474
       H   -12.44383   16.73648  -14.86911
       O   -12.46150   17.59199  -14.46294
      H1   -13.39644   17.77755  -14.30451
       H   -11.03021   18.53095  -14.74441
       O   -10.13369   18.78708  -14.98991
      H1    -9.89555   19.57088  -14.44406
       H   -11.35358   19.52604  -11.24097
       O   -11.76156   19.46661  -10.34669
      H1   -11.85889   18.51462  -10.17432
       H   -18.72830   18.97851  -14.22433
       O   -19.53271   19.53511  -13.96001
      H1   -19.76830   19.20588  -13.08259
       H   -10.71747   14.13864  -12.21347
       O   -10.57507   14.22986  -11.25551
      H1   -10.84636   15.13299  -11.02600
       H   -15.45355   17.78178  -14.65711
       O   -14.97442   18.27909  -13.97400
      H1   -15.42539   18.24345  -13.15821
       H   -11.32668   18.96730  -16.42443
       O   -11.64640   19.45674  -17.19057
      H1   -11.98766   18.78447  -17.80115
       H   -15.81075   13.84346   -8.46076
       O   -16.59743   13.30687   -8.68179
      H1   -16.47935   12.45003   -8.28864

