90
frame 1 | Written by MDAnalysis XYZWriter (release 2.4.3)
       H   -13.36570   12.02369  -18.37549
       O   -14.06528   11.70047  -18.96951
      H1   -13.87563   10.71548  -18.87913
       H   -12.50763    9.21737  -14.58664
       O   -13.37220    9.64186  -14.19255
      H1   -13.97883    8.96438  -14.58174
       H    -3.82533   17.21153  -19.50710
       O    -4.79066   17.05511  -19.33280
      H1    -4.90539   17.50419  -18.41977
       H    -8.58307   18.54160  -19.11680
       O    -9.27672   19.25556  -19.32939
      H1   -10.13513   18.71053  -19.32797
       H    -8.57906   13.27357  -14.16052
       O    -9.02489   12.44486  -14.23175
      H1    -9.94633   12.72122  -14.39011
       H   -11.53028    7.85341  -15.21152
       O   -11.23908    8.76197  -15.19672
      H1   -11.46948    9.10516  -16.07038
       H    -5.11895   10.28919  -16.95372
       O    -5.25785   11.20053  -16.80995
      H1    -6.16237   11.17315  -16.59512
       H   -12.65367   18.22626  -15.63645
       O   -13.14436   18.23425  -16.44977
      H1   -12.66981   17.63330  -17.01472
       H    -9.44167    8.50931  -15.71110
       O    -8.61380    8.43021  -16.25252
      H1    -8.17275    7.64478  -15.84138
       H    -8.29336   10.03647  -16.30779
       O    -8.30501   10.96367  -16.61879
      H1    -8.44782   11.45308  -15.75853
       H   -11.73610    9.16630  -18.65145
       O   -11.85625    9.57662  -17.79614
      H1   -11.68056   10.50747  -17.94851
       H    -5.19791   12.30542  -19.22664
       O    -5.95261   12.84894  -19.47772
      H1    -6.70040   12.24593  -19.54852
       H   -16.72743   13.72395  -17.63817
       O   -16.77495   13.13766  -18.38869
      H1   -16.08502   12.44865  -18.14584
       H   -13.79515   14.30812  -19.54789
       O   -13.12914   14.45323  -18.86134
      H1   -12.92793   15.32257  -19.05659
       H    -6.31537    8.39165  -18.50175
       O    -7.29731    8.32974  -18.64570
      H1    -7.68112    8.26206  -17.75506
       H    -7.85645   14.41429  -12.46112
       O    -7.42481   14.32922  -13.33307
      H1    -7.57775   15.20551  -13.75306
       H   -11.07410   15.80773  -18.26419
       O   -11.47740   16.60030  -17.85872
      H1   -10.79854   17.28533  -17.89353
       H    -7.41643   17.33027  -17.43191
       O    -8.18676   17.07734  -17.96010
      H1    -8.19678   16.11513  -17.76522
       H    -4.15439   12.53042  -15.63743
       O    -3.63813   13.33752  -15.38535
      H1    -3.96971   13.98209  -15.97539
       H   -11.82472   16.27874  -14.15755
       O   -11.43373   15.56462  -13.61063
      H1   -11.95172   15.53626  -12.80979
       H   -12.86399   13.02738  -14.27615
       O   -12.04400   12.99352  -13.80323
      H1   -11.82629   13.93572  -13.70849
       H   -13.66855   11.38856  -15.42521
       O   -13.82140   12.21896  -15.85052
      H1   -12.97529   12.63660  -16.01766
       H    -6.98100    5.00362  -18.23636
       O    -6.21333    5.54997  -18.32294
      H1    -6.58359    6.43801  -18.46413
       H    -6.88657   14.06492  -17.44056
       O    -7.85612   14.13881  -17.54998
      H1    -8.06872   13.70595  -18.40814
       H    -8.56236   11.37331  -18.59841
       O    -8.55767   11.86586  -19.47301
      H1    -9.29546   12.43672  -19.50469
       H   -10.27843   12.19164  -16.98791
       O   -11.20186   12.46068  -17.16797
      H1   -11.02912   13.19458  -17.72727
       H   -11.16509    5.92821  -18.33690
       O   -10.62080    6.04516  -17.50738
      H1   -10.47858    6.96879  -17.65652
       H    -4.21469    8.20651  -18.44800
       O    -4.74957    8.62109  -17.71237
      H1    -4.32661    8.13198  -16.99771
       H    -3.06476   15.14791  -17.78667
       O    -2.09200   14.94695  -17.84957
      H1    -1.85031   14.62388  -16.94727
       H    -5.14439   15.78452  -18.20099
       O    -5.09588   14.92863  -17.75830
      H1    -5.51952   14.33337  -18.43611

