90
frame 1 | Written by MDAnalysis XYZWriter (release 2.4.3)
       H     7.49244  -16.09311    5.25229
       O     8.29477  -15.89639    5.81764
      H1     8.86380  -15.29948    5.26922
       H     6.71083  -19.11894    7.52186
       O     5.98256  -18.57559    7.10766
      H1     6.31818  -18.38459    6.25448
       H     7.62035  -13.20049    3.67643
       O     8.34113  -12.59312    3.72078
      H1     7.87860  -11.78113    3.53684
       H    10.40272  -17.29823    7.45346
       O     9.52485  -17.27249    7.80714
      H1     9.01531  -16.81203    7.02475
       H    12.79448  -11.16781   10.80787
       O    12.50858  -11.98908   11.20812
      H1    11.58687  -12.10066   10.91280
       H     4.50883  -19.49258    4.69353
       O     3.90250  -19.41851    5.52084
      H1     4.60655  -19.34864    6.24133
       H    10.62045  -15.68497   11.57376
       O    11.34040  -15.51892   12.23530
      H1    12.12672  -15.49425   11.64532
       H    13.08902  -12.90530    9.89604
       O    13.29068  -13.41205    9.10957
      H1    14.22924  -13.46864    9.07814
       H     8.81246  -17.04667    2.11700
       O     8.03257  -17.48106    2.51975
      H1     7.77370  -17.92314    1.74212
       H     4.43785  -17.61762    7.89972
       O     3.84721  -17.58568    8.65576
      H1     4.51591  -17.67262    9.36444
       H    13.58538  -13.80097    2.80378
       O    13.82542  -14.62663    3.28625
      H1    12.92754  -14.95544    3.43352
       H     6.96919  -13.32771    7.31583
       O     7.84645  -13.12262    7.01709
      H1     8.23239  -14.02911    6.71800
       H    17.62217  -17.06337    8.59125
       O    17.01082  -17.83711    8.66796
      H1    16.21363  -17.37023    8.40366
       H    12.68155  -15.17122    9.35128
       O    12.51567  -16.03142    9.75535
      H1    13.26002  -16.13304   10.34242
       H    14.40167  -15.80828    4.82879
       O    15.14431  -16.26622    5.23678
      H1    14.95106  -17.24329    5.19171
       H     8.84618  -19.32995   11.38381
       O     8.39590  -18.64175   11.92793
      H1     7.51639  -18.65766   11.47881
       H    12.60750  -19.24080    2.56349
       O    12.84238  -18.43464    3.08209
      H1    13.11741  -18.78532    3.94982
       H     7.54454  -15.73789   11.04730
       O     6.58317  -15.82760   11.27779
      H1     6.66302  -15.91148   12.25831
       H    14.68573  -15.84484    7.47924
       O    14.79736  -16.09539    8.43050
      H1    13.83495  -16.30511    8.64716
       H    12.48577  -16.40771    6.88569
       O    12.18498  -17.32120    6.89483
      H1    12.80361  -17.73792    7.48940
       H    11.64921  -19.19426   10.77980
       O    10.98386  -18.92477   10.16080
      H1    11.33303  -18.01131   10.03814
       H    10.77362  -14.49179    4.30090
       O    10.40796  -14.02152    5.09109
      H1     9.88396  -13.30739    4.66582
       H     5.11238  -17.05586    4.40842
       O     6.07860  -17.04237    4.59201
      H1     6.53924  -17.08987    3.66136
       H    10.98496  -15.88824    2.53868
       O    11.50173  -15.95350    3.36454
      H1    11.92542  -16.82230    3.29700
       H    12.74019  -13.87268    7.47413
       O    12.66056  -14.50407    6.73633
      H1    11.84154  -14.16627    6.30628
       H     5.48554  -18.60498   11.80533
       O     5.79766  -18.34319   10.89391
      H1     6.05744  -17.42382   11.04126
       H     9.14107  -16.99903   10.83593
       O     9.21358  -16.11827   10.34379
      H1     9.48619  -16.44854    9.39953
       H     5.03001  -14.14850    8.65209
       O     5.23600  -13.71171    7.77995
      H1     4.78238  -12.88106    7.91021
       H    13.92266  -19.61267   10.98563
       O    13.58451  -18.79003   11.31330
      H1    14.00833  -18.76141   12.26034
       H     8.81467  -19.62624    6.15200
       O     8.63094  -19.82882    7.06914
      H1     9.01103  -19.03095    7.45809

