90
frame 1 | Written by MDAnalysis XYZWriter (release 2.4.3)
       H     4.00923  -11.14532   10.69982
       O     3.23629  -10.68937   11.11292
      H1     2.91646  -11.19543   11.84868
       H     3.19313  -16.90858   15.95302
       O     2.96191  -17.83452   15.89343
      H1     2.58374  -17.86733   14.99830
       H     2.11650  -14.65508    7.27897
       O     1.22147  -14.29188    7.15669
      H1     1.24750  -14.01177    6.21989
       H     0.56853  -18.29819   10.29033
       O     0.12042  -17.88186   11.04183
      H1    -0.17079  -18.65342   11.54200
       H     1.54424  -17.56388   12.64098
       O     1.72055  -18.10658   13.45095
      H1     0.93355  -18.68704   13.36270
       H     5.64559  -11.54938   11.78685
       O     6.01758  -11.71875   10.91442
      H1     5.54071  -12.44978   10.59050
       H     3.40333  -18.77786   12.95909
       O     4.33609  -19.09043   12.95394
      H1     4.23151  -19.91848   12.45026
       H     4.43785  -17.61762    7.89972
       O     3.84721  -17.58568    8.65576
      H1     4.51591  -17.67262    9.36444
       H     5.52977  -18.66487   14.63105
       O     6.31075  -19.01116   15.10469
      H1     5.81260  -19.51346   15.75275
       H     8.03498  -11.52961   14.29035
       O     8.10661  -12.42316   14.00161
      H1     7.54327  -12.86289   14.67092
       H     0.76131  -16.95089   15.93209
       O     0.18006  -16.56297   16.59199
      H1    -0.35593  -17.33522   16.86333
       H    -1.20950  -13.77662   10.34265
       O    -1.44798  -12.87102   10.00943
      H1    -2.19522  -12.67714   10.60362
       H     2.28804  -13.16855   18.01382
       O     2.35297  -12.89489   17.07300
      H1     1.44095  -12.75434   16.75574
       H    -2.10765  -15.87234   10.33855
       O    -1.17133  -15.70346   10.50532
      H1    -0.84292  -16.61716   10.66266
       H     1.64840  -11.52818   13.23779
       O     2.44632  -11.67169   13.75433
      H1     2.27224  -12.48757   14.20909
       H     8.84618  -19.32995   11.38381
       O     8.39590  -18.64175   11.92793
      H1     7.51639  -18.65766   11.47881
       H     0.84490  -14.81983   14.73916
       O     0.95660  -14.29775   13.95228
      H1     0.04370  -14.33375   13.54578
       H     5.13390  -14.94113   10.65129
       O     4.44427  -14.43168   10.25239
      H1     3.72258  -14.96489   10.64704
       H     7.54454  -15.73789   11.04730
       O     6.58317  -15.82760   11.27779
      H1     6.66302  -15.91148   12.25831
       H    -0.30844  -10.04308   11.95423
       O     0.14024  -10.80172   12.39320
      H1    -0.40353  -11.54631   12.43487
       H     2.45557  -19.01631    9.03906
       O     1.58368  -19.40321    8.81649
      H1     1.37087  -19.02980    7.92005
       H     3.44858  -16.10764    7.46484
       O     3.53730  -15.75265    6.58471
      H1     4.28097  -15.14293    6.70704
       H     4.56305  -14.82950   15.84572
       O     3.77765  -15.21455   16.27738
      H1     3.34475  -14.42529   16.67813
       H     5.48554  -18.60498   11.80533
       O     5.79766  -18.34319   10.89391
      H1     6.05744  -17.42382   11.04126
       H     1.89251  -15.12693   12.71411
       O     2.37641  -15.57613   12.01941
      H1     3.29498  -15.32438   12.26370
       H     4.13690  -11.49293   13.73295
       O     5.06920  -11.56385   13.46264
      H1     5.43834  -10.76484   13.93535
       H     5.03001  -14.14850    8.65209
       O     5.23600  -13.71171    7.77995
      H1     4.78238  -12.88106    7.91021
       H     5.88764  -12.93678   16.15019
       O     6.01909  -13.49529   15.37982
      H1     5.71122  -12.86357   14.66145
       H    -1.90428  -15.17350   13.53171
       O    -1.43984  -14.49244   13.01285
      H1    -1.46312  -14.91488   12.10897
       H     6.31109  -15.59592   14.67917
       O     6.49062  -16.35692   14.11087
      H1     7.34928  -16.59738   14.39909

