90
frame 1 | Written by MDAnalysis XYZWriter (release 2.4.3)
       H    -9.70984  -19.45596   13.98150
       O    -9.96015  -18.96626   14.78114
      H1    -9.58157  -19.49591   15.56037
       H    -8.18055  -11.83184   14.18905
       O    -7.65990  -11.00987   14.35685
      H1    -7.08165  -10.91214   13.60418
       H    -5.61447  -15.94143    9.19763
       O    -6.49204  -16.34008    9.38339
      H1    -7.04529  -16.28455    8.58870
       H    -6.47227  -13.05724   10.97168
       O    -6.93064  -13.86246   11.09310
      H1    -6.54417  -14.28511   10.32896
       H   -12.09316  -16.52430   17.50310
       O   -12.50904  -16.96382   18.25321
      H1   -13.16523  -16.33234   18.54135
       H    -5.91977  -14.54901   12.65408
       O    -5.50987  -15.04550   13.40839
      H1    -5.34791  -14.30377   14.02334
       H   -13.12291  -20.07976   18.96183
       O   -12.17021  -19.78387   19.02497
      H1   -12.30066  -18.88157   18.66759
       H    -4.65851  -13.03637   17.29776
       O    -4.50356  -12.87295   16.33036
      H1    -4.90860  -11.94903   16.34026
       H    -4.31460  -16.68994   10.76221
       O    -3.65260  -16.62669   10.05263
      H1    -3.46089  -17.53944    9.83907
       H    -5.48367  -14.02944   18.91146
       O    -5.11550  -13.12076   19.13640
      H1    -4.75151  -13.34261   20.00997
       H    -1.64530  -14.03464   19.20053
       O    -2.20509  -13.72124   18.45741
      H1    -2.59941  -14.58506   18.24420
       H    -3.16275  -17.21011   17.51097
       O    -3.28215  -16.19235   17.44356
      H1    -4.26202  -16.25628   17.52904
       H   -11.44657  -19.17007    9.98666
       O   -11.77773  -19.18628   10.91653
      H1   -11.50598  -18.29002   11.29165
       H    -8.01774  -15.75958   15.92528
       O    -8.47756  -15.02026   16.39450
      H1    -8.75998  -14.42314   15.69488
       H   -11.34553  -15.46841   14.60641
       O   -11.34162  -14.47490   14.50023
      H1   -12.29498  -14.29253   14.49493
       H   -10.18703  -17.54741   13.05280
       O   -10.82548  -17.00218   12.59237
      H1   -10.19474  -16.53677   12.08711
       H   -11.34389  -14.21713   16.37500
       O   -11.57243  -14.09875   17.34275
      H1   -11.07040  -13.30956   17.62302
       H    -0.84008  -19.19521   17.36109
       O    -1.70913  -18.80455   17.12845
      H1    -2.21853  -19.06226   17.95152
       H    -3.51297  -15.60234   14.82131
       O    -2.59764  -16.02659   14.81265
      H1    -2.35496  -16.02419   15.78571
       H    -8.79706  -13.97661   19.69860
       O    -8.51473  -13.43749   18.94918
      H1    -8.87979  -13.91962   18.16380
       H    -4.48408  -18.34544   15.32199
       O    -4.80835  -18.56547   16.16934
      H1    -4.22391  -19.28276   16.51686
       H    -9.92582  -16.50257   16.29455
       O   -10.88826  -16.82788   16.20006
      H1   -10.67612  -17.51799   15.57321
       H    -9.99237  -13.29510   13.93527
       O    -8.99437  -13.32446   13.95736
      H1    -8.80223  -13.75014   13.05930
       H   -10.11752  -14.14993   11.10929
       O    -9.50255  -14.91348   11.33336
      H1    -8.60282  -14.57603   11.17244
       H    -8.38422  -18.17974   15.11794
       O    -7.77528  -17.62274   15.57580
      H1    -7.01108  -17.59484   15.00258
       H    -2.65274  -17.56710   14.28591
       O    -2.91856  -18.41344   13.88263
      H1    -3.71770  -18.18952   13.36821
       H    -6.16624  -19.32422   10.16902
       O    -6.88072  -18.89698   10.62362
      H1    -6.99409  -18.06919   10.01330
       H    -5.71208  -16.91827   12.73922
       O    -5.35783  -17.80279   12.60340
      H1    -6.09297  -18.30279   12.27210
       H    -4.54862  -18.51659   19.11380
       O    -3.73301  -18.93416   18.89139
      H1    -3.46956  -19.46089   19.61059
       H    -7.17445  -15.46618   17.60629
       O    -6.31711  -15.41376   18.07314
      H1    -6.47116  -16.06551   18.84752

