90
frame 1 | Written by MDAnalysis XYZWriter (release 2.4.3)
       H     8.43510   10.53262    2.63771
       O     8.08790   10.76661    3.53023
      H1     8.91257   11.19749    3.81896
       H     7.24636   15.91013    5.31496
       O     7.15455   15.07187    4.85519
      H1     7.99919   14.66011    5.13001
       H    12.57748   14.77045    2.23401
       O    12.00650   14.65467    2.97377
      H1    11.94409   15.52450    3.29295
       H     6.90863   14.97217   -1.40309
       O     7.13357   14.02676   -1.35656
      H1     6.62862   13.64293   -2.11321
       H    11.46411   18.07631    3.14852
       O    11.02513   17.33910    3.59240
      H1    11.63501   17.18071    4.34778
       H     6.94117   13.74165    1.37404
       O     7.11914   12.81142    1.37389
      H1     6.72859   12.47878    2.23350
       H     3.33910   15.13922   -2.00452
       O     3.68504   15.96132   -2.34892
      H1     2.96409   16.39316   -2.81207
       H     4.12862   14.49045    1.76663
       O     3.71169   13.89247    2.34412
      H1     4.29129   13.93581    3.11144
       H     5.38239   17.52238    6.61271
       O     6.25906   17.45921    6.23616
      H1     6.59282   18.33903    6.48509
       H    10.60506   12.60891   -1.44712
       O    11.02769   11.93931   -0.89318
      H1    10.61632   12.30823   -0.06845
       H     4.76226   11.40008    0.66639
       O     5.25062   11.76717   -0.11625
      H1     5.93720   12.30503    0.32029
       H     9.71575   14.74175    0.01985
       O     9.54900   15.46769    0.60476
      H1    10.44168   15.58255    0.97560
       H     8.37355   13.10894    5.97459
       O     9.12801   13.43479    5.45033
      H1     9.67270   14.00466    6.10031
       H     3.08585   18.87577    1.25791
       O     3.46155   19.41272    1.96470
      H1     4.34575   19.02501    2.12789
       H     5.96247   17.65949    2.92030
       O     5.69420   18.39414    3.58534
      H1     5.93312   18.06157    4.47139
       H    10.28941   12.14805    4.76237
       O    10.52407   11.20322    4.87086
      H1    11.13861   10.99780    4.10781
       H     9.45821   18.78252    3.89678
       O     9.14719   19.55323    4.39489
      H1     8.59608   20.04266    3.71232
       H     8.52763   14.15342   -1.56520
       O     9.54360   14.14967   -1.66386
      H1     9.75766   14.57173   -2.52431
       H     5.11925   12.60912    7.21326
       O     4.62654   13.33677    7.58728
      H1     4.37730   13.77352    6.72550
       H     5.55046   16.21524   -1.81230
       O     6.42514   16.54578   -1.76151
      H1     6.53035   16.93077   -2.66637
       H     7.10076   11.38239    6.74222
       O     6.96694   12.21997    6.36084
      H1     6.30818   12.05285    5.67610
       H     4.48889   18.34858   -0.23521
       O     5.35770   18.29057    0.19806
      H1     5.94257   17.67094   -0.25227
       H     8.86574   12.56998    1.61929
       O     9.87180   12.68605    1.45617
      H1    10.09256   13.47951    1.88218
       H     8.81175    9.81359    0.03909
       O     8.18331   10.14903    0.71876
      H1     7.98255   11.06884    0.41921
       H     7.40543   15.31942    2.88894
       O     7.14298   15.47581    1.99479
      H1     8.05490   15.53565    1.68225
       H     3.76324   15.74602    5.36620
       O     3.91909   14.77553    5.36142
      H1     4.87136   14.74116    5.30085
       H    12.15112   16.00711   -0.80238
       O    11.73436   16.86781   -0.98194
      H1    11.79172   17.26715   -0.11835
       H     0.61422   14.43120    1.62259
       O     1.04037   13.55548    1.53629
      H1     1.93125   13.68214    1.87301
       H     8.64025   16.60063   -1.84337
       O     9.32181   17.13976   -2.27155
      H1    10.12244   17.02872   -1.73233
       H     5.05318   11.37236    3.24976
       O     5.65212   12.03331    3.69566
      H1     6.45658   11.46922    3.82777

