90
frame 1 | Written by MDAnalysis XYZWriter (release 2.4.3)
       H     7.49244  -16.09311    5.25229
       O     8.29477  -15.89639    5.81764
      H1     8.86380  -15.29948    5.26922
       H     3.04866  -18.41241   -2.26022
       O     3.44826  -19.18609   -1.81373
      H1     2.77319  -19.47161   -1.21119
       H     6.71083  -19.11894    7.52186
       O     5.98256  -18.57559    7.10766
      H1     6.31818  -18.38459    6.25448
       H     6.02162  -14.58263   -3.63917
       O     5.18132  -14.18040   -3.89108
      H1     5.52001  -13.38631   -4.26731
       H     7.62035  -13.20049    3.67643
       O     8.34113  -12.59312    3.72078
      H1     7.87860  -11.78113    3.53684
       H     2.11650  -14.65508    7.27897
       O     1.22147  -14.29188    7.15669
      H1     1.24750  -14.01177    6.21989
       H     1.52476  -12.21157    1.78072
       O     0.72827  -12.41866    2.30919
      H1     0.03435  -11.88783    1.89319
       H     4.50883  -19.49258    4.69353
       O     3.90250  -19.41851    5.52084
      H1     4.60655  -19.34864    6.24133
       H    10.34293  -16.64913    0.20059
       O    10.33029  -15.98976    0.94012
      H1    10.00307  -15.18687    0.50887
       H     7.28480  -15.81765   -3.27951
       O     7.52692  -15.27967   -4.07826
      H1     6.91894  -15.66276   -4.73149
       H     1.47013  -16.65293   -3.03649
       O     2.43210  -16.84676   -2.76943
      H1     2.86346  -16.60001   -3.59762
       H     3.19306  -15.38401   -1.29648
       O     4.07206  -15.34252   -0.83338
      H1     4.19150  -14.36611   -0.58718
       H     8.81246  -17.04667    2.11700
       O     8.03257  -17.48106    2.51975
      H1     7.77370  -17.92314    1.74212
       H     6.55838  -17.26565   -1.07452
       O     6.19854  -16.76126   -1.82757
      H1     5.43531  -16.33519   -1.44950
       H     3.22594  -17.89467    4.79809
       O     3.06409  -17.03297    4.45274
      H1     3.33905  -16.47322    5.21726
       H     3.13142  -10.49624    1.77999
       O     3.27883  -11.39787    2.12869
      H1     3.40677  -11.88024    1.30318
       H     4.55822  -15.85068    1.02429
       O     4.82701  -16.38227    1.77679
      H1     4.95652  -17.26186    1.42071
       H    -0.52443  -13.91955    4.82311
       O    -0.02817  -13.09995    4.88263
      H1     0.43215  -12.88422    4.03521
       H     5.12652  -12.84173    0.95609
       O     4.36156  -13.03013    0.43007
      H1     4.48004  -12.49261   -0.34367
       H     5.41890  -13.97626    3.41010
       O     6.05644  -13.90285    2.74241
      H1     6.06977  -14.82470    2.44089
       H    -0.42952  -17.51870    0.57967
       O    -0.12888  -16.91482   -0.13290
      H1     0.78442  -16.86115    0.07442
       H     5.11238  -17.05586    4.40842
       O     6.07860  -17.04237    4.59201
      H1     6.53924  -17.08987    3.66136
       H     3.44858  -16.10764    7.46484
       O     3.53730  -15.75265    6.58471
      H1     4.28097  -15.14293    6.70704
       H     0.95418  -14.15040    0.91783
       O     1.03456  -14.43215   -0.02805
      H1     0.43124  -15.17429   -0.13246
       H     8.42582  -13.09092    0.83283
       O     9.38611  -13.17728    0.63016
      H1     9.29530  -12.96370   -0.30067
       H     2.05946  -18.58312    2.37803
       O     1.28944  -17.99810    2.44239
      H1     1.76954  -17.20059    2.72923
       H     3.95613  -12.75704   -2.70835
       O     3.83049  -12.07081   -2.06271
      H1     2.99371  -12.43447   -1.72592
       H    -0.31143  -19.97162    4.32636
       O    -0.53166  -19.03658    4.21782
      H1     0.18694  -18.76607    3.68010
       H     4.86863  -19.09303   -2.78316
       O     5.58370  -18.91769   -3.46816
      H1     6.10141  -18.18761   -3.00635
       H     7.87579  -18.83325   -0.70769
       O     7.25666  -18.59107    0.03540
      H1     6.43730  -19.08773   -0.10975

