90
frame 1 | Written by MDAnalysis XYZWriter (release 2.4.3)
       H   -14.85398   14.57494    5.61559
       O   -14.19736   15.24230    5.72214
      H1   -13.67888   15.31195    4.90895
       H   -19.22634   12.49027    2.23532
       O   -19.44314   12.10752    3.09544
      H1   -19.05491   11.23279    2.96155
       H   -11.55348   10.23152    0.98212
       O   -12.11662   10.85135    1.47512
      H1   -12.64575   11.21632    0.74169
       H   -14.19686   10.05362    6.87720
       O   -15.03917    9.54031    6.85894
      H1   -15.09883    9.27700    7.81500
       H   -18.79315    9.77348    7.02315
       O   -18.54069   10.66412    7.15818
      H1   -17.58891   10.59764    7.16974
       H   -15.62930   13.40664    3.81914
       O   -16.16396   13.47617    4.59645
      H1   -17.06811   13.70604    4.20359
       H   -11.54750    9.95194    8.28078
       O   -10.62528    9.91155    8.52588
      H1   -10.21495    9.42676    7.77823
       H   -15.98234    7.36851    4.82709
       O   -15.52395    7.29786    5.70207
      H1   -15.30880    8.21147    6.02268
       H   -17.82388    9.33509    3.64663
       O   -18.65114    9.49245    3.16764
      H1   -18.50297    9.05904    2.33885
       H   -19.05400   12.85155   -0.33708
       O   -18.97568   13.18918    0.55598
      H1   -18.07645   13.44504    0.65399
       H   -10.01813   12.33923    3.14330
       O   -10.02536   11.33484    3.02550
      H1   -10.88938   11.31047    2.62610
       H   -15.03778    8.78978   -0.77590
       O   -14.27873    9.04449   -0.21497
      H1   -14.76257    9.40940    0.53763
       H   -15.09080   12.75266   -0.67319
       O   -15.77761   13.28544   -0.23644
      H1   -15.42348   14.17501   -0.19072
       H   -12.62784   11.79090    6.49280
       O   -12.70886   10.79356    6.56429
      H1   -12.75824   10.53178    5.60765
       H   -16.31264    6.36366    6.94287
       O   -16.47789    5.64327    7.66415
      H1   -15.56812    5.51234    7.96658
       H   -11.85979    9.76470    3.09942
       O   -12.10828    9.39876    3.95977
      H1   -11.29223    9.00014    4.28296
       H   -15.71481   11.41653    0.96731
       O   -15.78864   10.56298    1.40065
      H1   -15.79528   10.79937    2.34306
       H   -18.03469    8.85143   -0.00871
       O   -18.47495    9.62800    0.35571
      H1   -17.69227   10.02741    0.79150
       H   -15.77785    6.06816    2.88082
       O   -16.47790    6.66063    2.99351
      H1   -16.66902    6.89810    2.11892
       H   -16.92918    6.40615   -0.54621
       O   -17.11595    7.07924    0.13021
      H1   -17.97779    6.71529    0.42318
       H   -10.76274    6.88103    6.12008
       O   -10.78132    6.37498    5.30993
      H1   -11.73112    6.22553    5.27614
       H   -13.32804    6.20148   -0.05141
       O   -13.57025    6.43302    0.87795
      H1   -13.82659    7.38194    0.73820
       H   -14.31569    6.12146    5.74243
       O   -13.51900    5.55915    5.61568
      H1   -13.73851    5.21159    4.71055
       H   -14.06417   13.32659    2.05372
       O   -14.09715   12.64725    2.73611
      H1   -13.37249   12.08814    2.38151
       H   -19.26173   12.30685    6.20907
       O   -19.49476   13.04848    5.65896
      H1   -19.24000   12.71324    4.78831
       H   -19.80535    7.06887    7.60864
       O   -19.24876    7.81452    7.29288
      H1   -18.66560    7.27665    6.69908
       H   -13.52086   10.59558   -0.84921
       O   -13.45438   11.55432   -0.88008
      H1   -12.55852   11.67384   -1.29821
       H   -12.61746   14.25202    6.33396
       O   -12.13028   13.50603    6.74035
      H1   -11.25830   13.41971    6.23558
       H   -14.43050    9.48364    9.85152
       O   -14.72256    8.61644    9.50260
      H1   -13.87995    8.10968    9.41096
       H   -15.99226   11.54778    4.18238
       O   -16.28343   10.58377    4.14402
      H1   -15.43328   10.17058    4.42948

