90
frame 1 | Written by MDAnalysis XYZWriter (release 2.4.3)
       H    -4.52760    5.15186  -18.58582
       O    -3.59091    5.02340  -18.93979
      H1    -3.14350    4.56485  -18.27372
       H    -2.82509    8.90137  -12.19796
       O    -2.66578    9.84088  -12.14258
      H1    -3.01557   10.07588  -11.24622
       H    -6.34446    6.08447  -16.39616
       O    -6.77628    6.58625  -15.69977
      H1    -6.67643    5.95906  -14.92278
       H    -4.23071    7.95021  -14.64932
       O    -4.61299    8.79857  -14.89416
      H1    -5.56810    8.60432  -14.76896
       H    -5.93091   14.68269  -12.96735
       O    -4.95328   14.56770  -12.85221
      H1    -4.80594   13.79937  -13.39686
       H     1.12103   13.81365  -16.51465
       O     0.92501   14.71181  -16.55997
      H1     1.66134   15.18642  -16.17713
       H    -2.79827   10.26842  -17.76787
       O    -2.53991   10.15005  -16.87655
      H1    -3.36716   10.32190  -16.39795
       H     2.18597   12.26205  -17.60383
       O     2.01752   11.97481  -16.73329
      H1     1.41813   11.21733  -16.81046
       H    -5.11895   10.28919  -16.95372
       O    -5.25785   11.20053  -16.80995
      H1    -6.16237   11.17315  -16.59512
       H    -0.45205    4.47932  -18.52491
       O    -0.70637    4.85133  -17.68713
      H1    -0.61521    4.05921  -17.09817
       H     2.05982   12.01328  -13.77256
       O     1.20923   12.24335  -14.15472
      H1     1.42286   12.20447  -15.05849
       H    -5.19791   12.30542  -19.22664
       O    -5.95261   12.84894  -19.47772
      H1    -6.70040   12.24593  -19.54852
       H    -1.43045    7.01107  -17.07213
       O    -1.98576    7.35746  -16.35909
      H1    -2.27200    8.29051  -16.65384
       H    -6.31537    8.39165  -18.50175
       O    -7.29731    8.32974  -18.64570
      H1    -7.68112    8.26206  -17.75506
       H     1.83253    9.38093  -15.13572
       O     2.29792    8.98855  -14.44705
      H1     2.68363    9.83800  -14.04953
       H    -3.63479    6.68079  -12.96655
       O    -3.58301    6.77786  -12.02968
      H1    -4.41591    7.20155  -11.83052
       H     0.89679   14.45130  -18.61081
       O     0.25587   14.58599  -19.35145
      H1    -0.57419   14.67195  -18.93860
       H    -4.15439   12.53042  -15.63743
       O    -3.63813   13.33752  -15.38535
      H1    -3.96971   13.98209  -15.97539
       H     0.16801   10.99127  -13.48207
       O     0.03088   10.18531  -12.98160
      H1    -0.92105   10.21207  -12.83270
       H    -6.98100    5.00362  -18.23636
       O    -6.21333    5.54997  -18.32294
      H1    -6.58359    6.43801  -18.46413
       H    -7.57439   12.01628  -12.71033
       O    -6.90733   11.73301  -12.03612
      H1    -6.22184   11.40911  -12.68439
       H    -3.80717   11.23656  -12.92116
       O    -4.64844   11.13432  -13.44699
      H1    -4.54233   10.37934  -14.04035
       H    -0.85700    7.96428  -14.96779
       O    -0.87016    7.77284  -14.04074
      H1    -0.18962    8.32941  -13.66488
       H     0.39813    9.46880  -17.16795
       O     0.23055   10.03349  -16.41188
      H1    -0.71649   10.06221  -16.49362
       H    -4.21469    8.20651  -18.44800
       O    -4.74957    8.62109  -17.71237
      H1    -4.32661    8.13198  -16.99771
       H    -3.06476   15.14791  -17.78667
       O    -2.09200   14.94695  -17.84957
      H1    -1.85031   14.62388  -16.94727
       H     0.46153    5.06666  -15.20846
       O    -0.01690    5.13432  -14.34739
      H1    -0.65751    5.83285  -14.56492
       H     1.03585    8.99346  -19.36389
       O     1.43709    8.45524  -18.64651
      H1     2.36148    8.69245  -18.67120
       H    -5.14439   15.78452  -18.20099
       O    -5.09588   14.92863  -17.75830
      H1    -5.51952   14.33337  -18.43611
       H    -3.57037    5.36006  -14.32747
       O    -3.76195    6.24437  -14.75462
      H1    -2.94988    6.37458  -15.31703

