90
frame 1 | Written by MDAnalysis XYZWriter (release 2.4.3)
       H   -12.69587   -8.69956   -1.78806
       O   -12.43216   -9.30505   -2.52100
      H1   -11.48194   -9.26536   -2.45427
       H    -6.52870   -9.23927   -5.47094
       O    -6.90753   -9.47909   -4.62409
      H1    -7.29691   -8.63779   -4.35914
       H   -10.49041   -3.81031   -4.65480
       O   -11.10123   -4.57116   -4.66013
      H1   -10.49371   -5.19012   -4.15269
       H    -3.09534   -7.37286   -3.47267
       O    -3.16809   -6.52611   -3.93589
      H1    -3.76692   -6.01340   -3.44927
       H    -6.23242   -6.14925   -2.99033
       O    -5.84177   -6.35965   -2.13304
      H1    -5.35117   -5.55622   -1.84719
       H    -8.34466  -10.97142   -2.11887
       O    -8.46868  -11.83429   -1.71189
      H1    -7.68361  -11.90058   -1.18922
       H    -9.92565   -6.83599   -8.06001
       O    -9.30704   -6.46442   -7.34743
      H1    -9.74335   -6.80240   -6.52919
       H    -7.73549   -7.43351   -1.19239
       O    -8.38991   -7.33310   -0.48935
      H1    -8.16880   -6.48851   -0.09143
       H    -9.23723   -9.65039   -8.45029
       O    -9.74987   -9.92036   -7.67925
      H1    -9.17426  -10.69083   -7.42304
       H    -1.92530   -6.36447   -2.89774
       O    -1.24250   -6.56678   -2.26218
      H1    -1.68362   -6.36798   -1.47762
       H    -7.58391  -12.65415   -4.73288
       O    -6.87636  -12.12129   -5.08934
      H1    -7.16082  -11.20208   -4.90306
       H    -9.90033   -1.41112   -3.51474
       O    -9.13452   -1.60622   -4.04194
      H1    -8.55699   -0.86567   -3.77392
       H    -3.41966   -2.38419   -5.16635
       O    -3.57021   -3.33211   -5.10534
      H1    -4.22158   -3.48498   -5.87215
       H    -9.47913   -8.53980   -2.45696
       O    -9.31175   -9.39687   -2.92215
      H1    -9.61012   -9.27977   -3.84738
       H    -4.57664   -7.86538   -5.68649
       O    -4.78746   -8.65760   -6.19428
      H1    -3.92776   -8.89468   -6.62405
       H   -11.49425   -7.81302   -5.36386
       O   -10.58157   -8.07762   -5.36442
      H1   -10.45148   -8.61200   -6.15241
       H    -7.21711   -4.94817   -9.01079
       O    -6.91439   -5.08133   -8.10141
      H1    -7.70647   -5.45562   -7.73073
       H   -10.97352   -6.66063   -2.50295
       O   -10.06754   -6.47322   -2.75697
      H1    -9.66873   -6.48002   -1.81406
       H    -6.26428   -5.35740    0.66089
       O    -7.14489   -4.98592    0.61810
      H1    -7.63113   -5.26587    1.44746
       H    -5.72412   -6.10851   -8.65322
       O    -5.01625   -6.47927   -9.21021
      H1    -4.73802   -7.10464   -8.51256
       H    -5.24340   -1.16738   -1.83058
       O    -6.02852   -1.72180   -2.02596
      H1    -5.61887   -2.61257   -2.12158
       H    -7.75218   -9.02541   -0.03148
       O    -7.59931   -9.86268    0.44683
      H1    -6.77214   -9.52828    0.82856
       H    -2.11280   -6.59382   -7.53401
       O    -2.61241   -7.01954   -6.80832
      H1    -2.03465   -6.66097   -6.06784
       H    -3.76938   -3.85968   -1.99722
       O    -4.46346   -4.11996   -2.59179
      H1    -4.02223   -3.80984   -3.41271
       H    -5.03566  -11.77159   -4.92217
       O    -4.18015  -11.29473   -5.01135
      H1    -4.41970  -10.39077   -5.31293
       H    -5.03706   -9.22276   -3.16804
       O    -4.10859   -9.33546   -2.91828
      H1    -3.77393  -10.06012   -3.45166
       H    -8.37896   -3.30125   -4.88705
       O    -8.08212   -4.14815   -5.29060
      H1    -8.79508   -4.38719   -5.87721
       H    -8.25410   -6.51513   -3.81910
       O    -7.39859   -6.50733   -4.30662
      H1    -7.35932   -5.61754   -4.71149
       H    -4.67269   -7.76537    0.09425
       O    -4.67799   -8.68735    0.19412
      H1    -4.78711   -9.04437   -0.68384
       H    -4.95063   -2.42599   -8.10110
       O    -5.34908   -2.23012   -7.23612
      H1    -6.05468   -2.91231   -7.22963

