90
frame 1 | Written by MDAnalysis XYZWriter (release 2.4.3)
       H   -15.47329  -10.45788   12.55486
       O   -15.20254  -10.15777   13.43284
      H1   -15.03429   -9.23891   13.21879
       H   -12.09316  -16.52430   17.50310
       O   -12.50904  -16.96382   18.25321
      H1   -13.16523  -16.33234   18.54135
       H   -14.07904  -12.39371   16.53649
       O   -13.72941  -12.24672   15.70284
      H1   -13.93140  -13.09958   15.25237
       H   -14.60947  -13.77935   18.61059
       O   -14.47263  -14.41447   17.92650
      H1   -13.60262  -14.24188   17.51999
       H   -16.77930  -11.79272   16.21301
       O   -16.85431  -11.49272   15.29365
      H1   -15.97250  -11.44207   15.00632
       H   -13.12291  -20.07976   18.96183
       O   -12.17021  -19.78387   19.02497
      H1   -12.30066  -18.88157   18.66759
       H    -9.24987   -8.45842   18.04024
       O   -10.18423   -8.84346   17.98636
      H1   -10.07740   -9.81043   18.22850
       H   -18.36901  -15.35072   15.51758
       O   -18.86551  -14.62953   15.22232
      H1   -19.73837  -14.95976   15.36482
       H   -15.10402   -8.88293   15.91968
       O   -14.21385   -8.70484   16.37371
      H1   -13.64645   -9.23049   15.73368
       H   -13.35290   -8.33908   17.95553
       O   -12.71148   -8.27745   18.68428
      H1   -11.93819   -8.63107   18.29159
       H    -8.01774  -15.75958   15.92528
       O    -8.47756  -15.02026   16.39450
      H1    -8.75998  -14.42314   15.69488
       H   -11.22217   -8.92341   14.90125
       O   -10.60065   -8.25206   15.21904
      H1   -10.45568   -8.66450   16.07969
       H   -14.50400  -17.25227   11.70330
       O   -14.72253  -16.76987   12.48802
      H1   -15.65113  -16.51502   12.45397
       H   -11.34553  -15.46841   14.60641
       O   -11.34162  -14.47490   14.50023
      H1   -12.29498  -14.29253   14.49493
       H   -16.87997  -17.04903   15.99884
       O   -17.61635  -17.06671   15.37574
      H1   -17.85626  -18.02933   15.44906
       H   -11.34389  -14.21713   16.37500
       O   -11.57243  -14.09875   17.34275
      H1   -11.07040  -13.30956   17.62302
       H    -8.79706  -13.97661   19.69860
       O    -8.51473  -13.43749   18.94918
      H1    -8.87979  -13.91962   18.16380
       H   -13.26473   -9.80527   13.94360
       O   -12.46922  -10.30190   14.16441
      H1   -12.82011  -11.07254   14.67133
       H   -18.38631  -13.22857   16.77978
       O   -17.99808  -12.75198   17.51470
      H1   -18.70636  -12.14744   17.69363
       H   -14.86179  -17.15275   17.62581
       O   -15.34940  -17.97740   17.81872
      H1   -14.96377  -18.62500   17.21875
       H   -17.86286  -10.26393   14.44230
       O   -18.46703   -9.61027   14.22971
      H1   -17.83393   -8.86383   14.16513
       H    -9.92582  -16.50257   16.29455
       O   -10.88826  -16.82788   16.20006
      H1   -10.67612  -17.51799   15.57321
       H   -14.31640  -15.44301   13.64219
       O   -14.15822  -14.69802   14.23249
      H1   -14.82825  -14.09826   13.92427
       H   -18.78240  -15.16254   19.30553
       O   -17.89895  -15.14346   19.77763
      H1   -17.45222  -14.69428   18.99782
       H    -9.99237  -13.29510   13.93527
       O    -8.99437  -13.32446   13.95736
      H1    -8.80223  -13.75014   13.05930
       H   -15.86461   -6.68676   17.91105
       O   -16.15846   -5.99779   17.26483
      H1   -16.62402   -5.38496   17.85974
       H   -17.52267  -16.73497   13.49973
       O   -17.35460  -16.38832   12.61242
      H1   -18.27248  -16.32559   12.34933
       H   -17.46483  -14.20778   13.25643
       O   -17.15588  -13.30962   13.10952
      H1   -17.28726  -12.74354   13.94435
       H   -19.74596  -17.39297   17.98356
       O   -19.35802  -18.29007   17.98843
      H1   -19.45775  -18.50419   17.04316
       H    -9.97567  -11.99967   18.65613
       O   -10.62947  -11.52985   18.13392
      H1   -11.42879  -11.64196   18.64470

