90
frame 1 | Written by MDAnalysis XYZWriter (release 2.4.3)
       H   -17.28899   15.98276    3.01324
       O   -17.52080   15.30225    2.34413
      H1   -18.38848   15.66460    2.01964
       H   -17.47977   15.71358   -3.20358
       O   -17.63556   15.06419   -3.92055
      H1   -17.31453   14.22688   -3.52459
       H   -12.79679   18.54572   -3.82243
       O   -12.33206   17.68809   -3.61989
      H1   -12.05849   17.85249   -2.64606
       H   -15.62930   13.40664    3.81914
       O   -16.16396   13.47617    4.59645
      H1   -17.06811   13.70604    4.20359
       H   -16.57016   16.62318   -6.26546
       O   -16.11263   15.91117   -5.87593
      H1   -16.85268   15.52120   -5.32358
       H   -13.57058   18.87165    3.07099
       O   -13.15066   18.11769    2.61844
      H1   -12.25160   18.46736    2.37566
       H   -11.65922   13.80526   -3.09870
       O   -10.72181   13.92821   -2.78134
      H1   -10.36022   13.01490   -2.76676
       H   -18.28201   17.89161   -1.70140
       O   -17.49027   17.40654   -2.02175
      H1   -16.96066   17.34894   -1.17017
       H   -13.89658   18.50229    1.08852
       O   -14.29511   18.68971    0.19957
      H1   -14.06834   19.63056    0.18110
       H   -19.05400   12.85155   -0.33708
       O   -18.97568   13.18918    0.55598
      H1   -18.07645   13.44504    0.65399
       H   -15.20847   16.14044   -4.13721
       O   -14.65844   16.09611   -3.38093
      H1   -13.93136   16.69631   -3.68660
       H    -9.40565   19.79914   -1.14791
       O    -9.30526   19.07731   -0.51996
      H1    -8.35013   19.08245   -0.56362
       H   -15.09080   12.75266   -0.67319
       O   -15.77761   13.28544   -0.23644
      H1   -15.42348   14.17501   -0.19072
       H   -12.68339   15.17490    3.07720
       O   -12.24464   15.66701    3.79103
      H1   -12.43533   16.55537    3.61995
       H   -10.50825   15.47072   -3.64781
       O   -10.07230   16.27060   -3.93711
      H1   -10.70351   16.98495   -3.82481
       H   -15.71481   11.41653    0.96731
       O   -15.78864   10.56298    1.40065
      H1   -15.79528   10.79937    2.34306
       H   -14.86208   16.80932   -0.79600
       O   -14.89605   15.82571   -0.61599
      H1   -14.61558   15.52989   -1.50484
       H   -10.70310   14.92004   -1.34967
       O   -11.09098   15.03729   -0.42920
      H1   -11.44242   15.99995   -0.58513
       H   -10.06177   19.30265    1.35205
       O   -10.48408   19.28315    2.17968
      H1    -9.68445   19.27535    2.74320
       H   -16.43427   18.85408   -4.77323
       O   -16.14845   19.08089   -3.84178
      H1   -16.53976   18.49787   -3.18535
       H   -14.06417   13.32659    2.05372
       O   -14.09715   12.64725    2.73611
      H1   -13.37249   12.08814    2.38151
       H   -17.94242   17.50990    4.42161
       O   -17.29442   17.98039    3.88871
      H1   -17.96014   18.49158    3.38479
       H   -14.38398   18.29464   -7.16935
       O   -13.87414   17.87553   -6.48148
      H1   -14.60042   17.30767   -6.21360
       H   -17.00548   17.18587    1.22024
       O   -16.96173   18.06864    0.72469
      H1   -16.03399   18.29129    0.82281
       H    -9.57411   15.24591    0.34090
       O    -8.61508   15.27365    0.49559
      H1    -8.58117   14.80510    1.35698
       H   -13.45352   15.29530    0.64361
       O   -13.13197   14.57114    1.18107
      H1   -12.22330   14.54336    0.84429
       H   -17.45531   11.91860   -3.69442
       O   -16.63242   12.40576   -3.35232
      H1   -15.99720   11.93457   -3.93216
       H   -13.52086   10.59558   -0.84921
       O   -13.45438   11.55432   -0.88008
      H1   -12.55852   11.67384   -1.29821
       H   -12.79806   17.98049   -0.57257
       O   -12.05918   17.48166   -0.83582
      H1   -11.39019   18.10028   -0.34866
       H   -13.92942   14.36351   -3.64681
       O   -13.16890   13.77479   -3.93722
      H1   -13.63902   12.97955   -4.21428

