90
frame 1 | Written by MDAnalysis XYZWriter (release 2.4.3)
       H    10.76615   -7.32317    1.92857
       O    11.14371   -8.07031    2.47205
      H1    11.84370   -8.25160    1.84257
       H     6.71139   -4.19229    1.96738
       O     6.10618   -4.12713    1.21106
      H1     6.58576   -3.38063    0.75367
       H     8.76710   -8.85332    8.64585
       O     8.74810   -8.03911    9.21568
      H1     8.65970   -8.32082   10.13399
       H     9.01957   -9.42893    2.84305
       O     8.32174   -9.98694    2.47531
      H1     7.64658   -9.29435    2.30644
       H    12.42397   -4.56417   -0.35651
       O    12.07978   -4.16849    0.44186
      H1    11.52781   -3.43750    0.19252
       H    13.74357   -3.04098    3.00651
       O    13.45634   -2.52755    2.22404
      H1    13.13895   -3.20210    1.63416
       H     9.52789   -1.64260    6.27538
       O     9.81391   -1.07915    6.99535
      H1     9.08889   -0.49088    7.06456
       H     8.46310   -4.96306    2.80661
       O     7.75700   -4.91666    3.51077
      H1     8.10967   -5.61477    4.06395
       H    13.61155   -5.92853    4.78844
       O    13.00726   -6.24403    5.50677
      H1    12.13843   -6.20919    5.05443
       H     6.42204   -2.71324    5.89382
       O     7.28997   -3.14083    5.71339
      H1     6.96125   -3.69594    5.01479
       H    11.08730   -6.86676   -1.23941
       O    10.32501   -6.38146   -0.92743
      H1     9.64293   -7.05262   -1.05249
       H    15.33668   -5.92484    7.16605
       O    15.27256   -5.22430    7.81516
      H1    14.25943   -5.26976    7.93346
       H     7.28477   -6.55376   -0.68473
       O     6.40033   -6.16610   -0.61808
      H1     6.39526   -5.62317    0.18232
       H    14.26464   -8.39280    0.85668
       O    13.32752   -8.33921    0.68322
      H1    13.14990   -9.30296    0.47838
       H     8.84558   -8.17072    5.65528
       O     9.43032   -8.80389    5.22407
      H1    10.24134   -8.66267    5.73254
       H    12.39081  -10.25301    5.12333
       O    12.09731  -10.85276    4.42469
      H1    11.62354  -10.20775    3.91003
       H    10.73021   -1.39560    0.92325
       O    10.53133   -1.22516    1.88143
      H1    11.23636   -0.61429    2.10777
       H    11.88142   -8.37217    7.53105
       O    11.91358   -8.47075    6.56841
      H1    12.41780   -7.66830    6.31628
       H     8.65597  -10.99424    7.50208
       O     8.43400  -10.06143    7.39649
      H1     8.95928   -9.89189    6.55520
       H     7.20691   -5.36013    8.61609
       O     6.98319   -6.26818    8.31043
      H1     7.65728   -6.90379    8.60829
       H    11.28426   -6.09177    9.26461
       O    11.09726   -6.93662    9.72700
      H1    10.12153   -7.11210    9.68513
       H    10.51454   -4.83086    1.61630
       O     9.82824   -5.47387    1.62992
      H1     9.89629   -5.91370    0.76847
       H    11.48370   -1.87096    3.61773
       O    11.36882   -2.10310    4.57592
      H1    11.62900   -1.27140    5.04087
       H     8.46850   -2.20917    4.37289
       O     8.44765   -1.37790    3.90582
      H1     9.18725   -1.47241    3.32269
       H    11.62938   -4.23326    7.84972
       O    12.26398   -4.98171    7.74742
      H1    12.37161   -4.88013    6.79463
       H     5.03668   -8.24335    2.50002
       O     5.99208   -8.18465    2.58720
      H1     6.10466   -7.36734    3.11395
       H     7.47475   -6.13466    6.47007
       O     7.90970   -6.48506    5.69101
      H1     8.80906   -6.20373    5.84015
       H    14.89986   -4.62775    4.64444
       O    14.94278   -5.30511    3.93815
      H1    15.62097   -5.95359    4.23418
       H    10.42699   -6.23273    3.95195
       O    10.33308   -5.60578    4.66290
      H1    10.57121   -4.74900    4.18680
       H    14.96413   -2.69749    5.60978
       O    14.34482   -3.46400    5.48380
      H1    14.48296   -3.98094    6.32728

