90
frame 1 | Written by MDAnalysis XYZWriter (release 2.4.3)
       H    14.97653    5.33088    4.21929
       O    14.56559    6.15204    4.43977
      H1    13.63250    5.83552    4.36491
       H    14.96625    3.36202   -1.05650
       O    15.50315    3.21706   -0.26678
      H1    16.01829    2.39349   -0.48462
       H    15.82552    0.19733    3.52947
       O    16.28126   -0.68083    3.40264
      H1    15.64889   -1.16132    2.85787
       H    16.83386    8.47432   -1.25782
       O    17.03942    7.56342   -1.15877
      H1    17.51491    7.51909   -0.33890
       H    17.47295    7.03543    2.58912
       O    17.28519    6.47549    1.86214
      H1    16.26402    6.49479    1.84638
       H    15.40963   -0.01251   -2.75532
       O    14.79489   -0.19158   -2.05373
      H1    14.09413    0.37704   -2.37877
       H    13.68646    5.27158   -1.93637
       O    13.87089    4.43093   -2.37729
      H1    12.95892    4.31234   -2.73505
       H    18.73627   -1.63786    0.48194
       O    18.85831   -1.30889   -0.42817
      H1    18.29881   -1.76556   -1.04369
       H    17.98052   -3.09051   -2.83757
       O    17.43077   -2.34942   -2.68638
      H1    17.41288   -1.84794   -3.51472
       H    17.99338   -0.73133    6.48759
       O    18.55928   -0.13668    6.96074
      H1    18.38031   -0.42636    7.88963
       H    15.57583   -0.53223   -0.64455
       O    16.04444   -0.57579    0.18567
      H1    16.68227    0.21823    0.08008
       H    15.69016   -4.07242    1.93100
       O    16.47065   -3.85734    1.41602
      H1    16.16443   -3.04492    0.91410
       H    14.64338    0.94266    0.69742
       O    13.95999    1.45178    1.14302
      H1    14.13532    2.35606    0.76655
       H    19.17813    6.97835    4.44530
       O    19.65281    6.19873    4.69195
      H1    18.95727    5.59137    4.98713
       H    16.09010    3.82459    1.78164
       O    15.60651    3.93389    2.56831
      H1    15.53631    3.09705    3.04256
       H    12.27530    4.51839    4.92428
       O    12.71314    4.10436    4.13459
      H1    12.83843    3.17286    4.48298
       H    12.07026    1.78645    0.22430
       O    11.29446    2.06537   -0.21077
      H1    10.68308    2.24707    0.52860
       H    18.30120    2.96872    7.22297
       O    17.72972    2.39694    6.68640
      H1    18.10600    1.49596    6.77169
       H    17.23825    5.23176   -3.80376
       O    16.81917    4.38936   -3.53956
      H1    16.22008    4.70222   -2.84650
       H    14.76839    5.59880    2.02457
       O    14.57329    6.41918    1.46555
      H1    14.26151    7.07807    2.11541
       H    16.25361    0.97168   -4.75627
       O    16.52230    0.19906   -4.21134
      H1    17.38208    0.62977   -3.91514
       H    18.36229   -0.69776    2.81788
       O    19.21890   -0.92915    2.43548
      H1    19.80851   -0.25997    2.91875
       H    17.53988    3.83466    5.60089
       O    17.36095    4.64227    5.10140
      H1    17.46526    4.24344    4.20682
       H    19.31777    3.07901    3.09611
       O    18.46540    2.68380    3.18078
      H1    18.63000    2.11126    3.94874
       H    16.33827   -1.10657    5.16128
       O    16.41886   -1.46423    6.04331
      H1    15.77567   -0.97124    6.55168
       H    17.89201    3.75221   -1.93757
       O    18.53605    3.81678   -1.24231
      H1    18.60817    4.75658   -0.98221
       H    13.35690    0.44729    2.45125
       O    12.77063   -0.13733    2.91533
      H1    13.09025   -1.02996    2.67661
       H    19.97740    4.89437    0.96024
       O    19.48394    5.70154    0.58140
      H1    18.66817    5.65627    1.15819
       H    14.64945    1.64305    5.22098
       O    15.47113    1.61077    4.77335
      H1    16.10472    1.66433    5.52654
       H    17.74555    1.83239    1.34402
       O    17.58814    1.63349    0.38631
      H1    18.03420    2.38272   -0.03527

