90
frame 1 | Written by MDAnalysis XYZWriter (release 2.4.3)
       H     7.43105  -17.93730  -10.94200
       O     8.34036  -17.99834  -11.39645
      H1     8.97107  -17.69288  -10.71144
       H     2.10024  -15.52243  -10.05816
       O     1.20665  -15.21045   -9.94111
      H1     1.17771  -15.21753   -8.96532
       H     5.97327  -18.30931  -15.43377
       O     5.09751  -18.07615  -15.07073
      H1     5.16879  -17.20490  -14.65536
       H     5.89049  -18.14807   -9.14765
       O     5.88888  -17.69408  -10.08520
      H1     5.77910  -16.82144   -9.74190
       H     4.10615  -15.23507  -13.92647
       O     4.93326  -15.65598  -13.63607
      H1     5.51559  -14.88868  -13.47223
       H     2.15569  -13.28227  -11.99512
       O     3.04796  -13.15612  -12.36326
      H1     2.90739  -13.47543  -13.24730
       H     8.14985  -17.12164  -13.28663
       O     7.57933  -17.07336  -14.02343
      H1     6.79745  -16.71951  -13.60547
       H     3.62855  -14.20166  -11.12125
       O     4.07396  -15.02492  -10.83642
      H1     4.25747  -15.43377  -11.67474
       H    11.68843  -16.10833  -11.85196
       O    12.05578  -15.39351  -12.41928
      H1    12.97867  -15.38136  -12.12613
       H     1.33608  -16.15620  -13.79425
       O     0.70915  -16.05126  -13.03936
      H1     0.91581  -15.11247  -12.76373
       H     5.77839  -13.94250  -11.28517
       O     6.50447  -13.96437  -11.89675
      H1     7.28870  -13.73890  -11.32373
       H     7.36674  -19.18159  -18.17621
       O     7.71987  -18.67509  -17.45501
      H1     8.61767  -18.55743  -17.71949
       H    10.90729  -17.53258   -9.79646
       O    10.28942  -16.77327   -9.99537
      H1    10.01331  -16.59184   -9.06734
       H     2.75496  -17.44450  -18.15126
       O     3.11559  -16.76889  -18.75151
      H1     3.38910  -16.07956  -18.10885
       H     2.55210  -18.01849  -15.17640
       O     2.01762  -17.20229  -15.23184
      H1     1.32010  -17.54720  -15.82470
       H    10.60023  -11.87518  -15.68022
       O    10.19176  -12.28012  -14.90889
      H1     9.42468  -11.71211  -14.74975
       H     2.52655  -18.24440  -11.17596
       O     3.36561  -18.48103  -11.58978
      H1     4.02210  -18.24986  -10.91359
       H     8.95868  -14.29663  -15.38573
       O     8.17537  -14.73738  -15.75829
      H1     8.11341  -15.59469  -15.32184
       H     6.49092  -13.70087  -15.79202
       O     5.69174  -13.15334  -15.83008
      H1     5.91326  -12.48447  -15.14352
       H     2.38738  -14.30394  -15.72995
       O     2.88874  -13.92409  -15.03150
      H1     3.58502  -13.52982  -15.51252
       H     6.70887  -11.30211  -13.72508
       O     7.14979  -12.15697  -14.02377
      H1     7.02571  -12.67117  -13.17135
       H     8.22896  -15.70996  -18.96758
       O     8.42046  -14.81923  -18.61358
      H1     8.46057  -14.96533  -17.65562
       H    10.77198  -17.13552  -17.83017
       O    10.06565  -17.65305  -18.24070
      H1     9.58468  -16.98238  -18.75799
       H    12.31411  -15.60081  -16.31161
       O    12.29630  -16.53241  -16.64769
      H1    11.84942  -17.03940  -15.91952
       H     5.12062  -17.31326  -18.10457
       O     5.96399  -16.95044  -18.51508
      H1     6.66288  -17.51650  -18.08829
       H     5.96109  -12.01887  -10.26025
       O     5.44187  -12.61661   -9.69281
      H1     6.13418  -13.04332   -9.23940
       H    10.98085  -13.12624  -10.62965
       O    10.58689  -12.96616  -11.54710
      H1    10.96474  -13.65379  -12.10313
       H     4.99692  -13.83361  -17.39627
       O     4.85539  -14.50399  -18.13609
      H1     5.74183  -14.86776  -18.29327
       H     9.03866  -12.20580  -11.01534
       O     8.14428  -11.83494  -10.84700
      H1     8.18448  -10.93232  -11.25367
       H     4.03961  -11.66206  -11.92046
       O     4.19019  -10.84207  -11.48215
      H1     4.75191  -10.26514  -12.03990

