90
frame 3 | Written by MDAnalysis XYZWriter (release 2.4.3)
       H    17.11740  -12.58671   -5.58742
       O    16.29004  -12.27526   -5.97171
      H1    16.40240  -11.31642   -6.14375
       H    18.54053  -17.42285   -8.18444
       O    18.42264  -17.11843   -7.25701
      H1    18.21792  -17.94798   -6.78192
       H    18.62567   -8.94317   -8.29181
       O    18.21001   -9.75293   -7.99928
      H1    17.76235   -9.47394   -7.15780
       H    15.64634  -11.76733   -4.11126
       O    15.45636  -11.59441   -3.18046
      H1    15.25073  -10.68198   -3.00510
       H    15.15927  -16.27419   -5.86885
       O    14.84452  -17.14408   -5.58556
      H1    15.45583  -17.77008   -6.05317
       H    19.25902  -13.16970  -15.33064
       O    19.06121  -13.94665  -14.80686
      H1    19.80743  -14.16410  -14.22666
       H    13.24241  -11.60994   -9.76003
       O    13.05828  -11.09461   -9.00993
      H1    13.89371  -10.61565   -8.93370
       H    17.57653  -19.38943   -4.96698
       O    18.55142  -19.38046   -5.06686
      H1    18.93665  -18.67495   -4.44055
       H    14.21486  -12.10598  -12.21864
       O    14.60963  -12.17382  -11.33073
      H1    15.56136  -12.00428  -11.34041
       H    16.76609  -14.59644   -2.47717
       O    17.02171  -13.74095   -2.16985
      H1    16.49294  -13.07501   -2.62759
       H    13.49759  -14.47539   -6.45119
       O    14.44975  -14.37220   -6.54761
      H1    14.65397  -13.49335   -6.23445
       H    17.70558   -6.95144   -6.80916
       O    18.37814   -6.42465   -7.22901
      H1    18.90744   -6.06824   -6.51373
       H    19.19983  -12.56466   -9.50359
       O    19.04076  -12.76595  -10.42528
      H1    19.12510  -13.77379  -10.46206
       H    14.87848  -14.18501   -8.27328
       O    15.26141  -14.28811   -9.15688
      H1    15.04946  -13.44499   -9.56911
       H    19.09479  -15.31263   -6.65994
       O    19.70848  -14.84049   -6.11055
      H1    19.63457  -15.22421   -5.21925
       H    16.61134  -15.28597  -10.27883
       O    16.87304  -15.97591  -10.95369
      H1    17.22708  -15.44479  -11.69219
       H    18.76241   -8.97280   -3.26225
       O    18.43394   -8.36579   -3.91312
      H1    18.31441   -7.54887   -3.38207
       H    16.87158   -7.31993  -10.08557
       O    15.91562   -7.47953  -10.32979
      H1    15.78682   -8.33483   -9.88655
       H    19.44225  -13.16521   -4.71461
       O    18.64874  -12.74893   -4.23223
      H1    18.49354  -13.39137   -3.55218
       H    18.65578   -6.75403   -8.97042
       O    18.82276   -7.14770   -9.87723
      H1    19.17984   -6.36168  -10.37967
       H    19.50112  -10.24069  -12.97767
       O    18.93566   -9.41717  -13.03759
      H1    18.04257   -9.60685  -12.70473
       H    18.94850  -11.67837   -7.28550
       O    19.55004  -12.42527   -7.65252
      H1    19.44310  -13.24994   -7.15446
       H    16.38019  -10.07393   -9.06126
       O    15.53414  -10.00115   -9.47017
      H1    15.67634   -9.94027  -10.42165
       H    15.70961   -8.67376   -6.29493
       O    16.48330   -9.22021   -6.13221
      H1    16.75422   -8.94358   -5.24122
       H    18.00370  -12.47732  -11.91662
       O    17.22348  -12.46712  -12.46315
      H1    17.36261  -13.04337  -13.23238
       H    15.46356  -16.70200  -11.52565
       O    14.62500  -17.02340  -11.86078
      H1    14.61352  -17.97215  -11.69350
       H    18.92356  -11.35689   -2.77464
       O    19.15697  -10.58358   -2.30956
      H1    19.12812  -10.80330   -1.37622
       H    16.70609  -10.84589  -12.47509
       O    16.39589   -9.98832  -12.13572
      H1    15.81229   -9.65486  -12.81165
       H    17.99129  -17.59011  -10.13910
       O    18.43106  -18.24785   -9.63541
      H1    17.75177  -18.87049   -9.37416
       H    13.67863  -14.73557  -10.11081
       O    12.92426  -15.21366  -10.48339
      H1    13.39638  -15.84685  -11.03259

