90
frame 1 | Written by MDAnalysis XYZWriter (release 2.4.3)
       H   -18.58093   -7.58335  -13.35515
       O   -18.14145   -6.74014  -13.46055
      H1   -17.44546   -7.01378  -14.16122
       H    -9.99264   -6.02555  -19.44648
       O   -10.16307   -6.80559  -18.82966
      H1   -10.39094   -7.58442  -19.35988
       H   -19.07170   -5.80683  -15.57098
       O   -19.51890   -5.83552  -16.43501
      H1   -18.72184   -6.10532  -16.95053
       H   -10.37656   -9.88508  -16.35720
       O   -10.07420   -9.09524  -15.76359
      H1    -9.89413   -9.66693  -15.04348
       H   -14.87103   -3.22078  -18.43733
       O   -15.48594   -3.92551  -18.21357
      H1   -15.06854   -4.70161  -18.55445
       H   -11.74059  -11.14442  -18.63793
       O   -12.49732  -11.54781  -19.11178
      H1   -13.16046  -10.88243  -18.89469
       H   -17.08048   -7.76923  -18.16064
       O   -17.24699   -6.87464  -17.82560
      H1   -16.76510   -6.90291  -16.93664
       H   -10.24701  -11.66790  -17.75514
       O   -10.54799  -10.72214  -17.76562
      H1    -9.80305  -10.36927  -18.30961
       H   -16.08774  -12.56313  -12.96490
       O   -15.66649  -12.97442  -12.15503
      H1   -14.74824  -13.21146  -12.41044
       H   -16.70953  -13.14632  -15.61523
       O   -15.80389  -13.14079  -15.11373
      H1   -15.58801  -14.02858  -15.39644
       H   -14.92100  -11.73721  -15.82638
       O   -14.01175  -11.36456  -15.92846
      H1   -13.99542  -10.78954  -15.15157
       H   -10.10232  -12.66981  -13.14825
       O   -10.58754  -11.90616  -13.54745
      H1   -10.59794  -11.23567  -12.86634
       H   -16.34833   -9.61480  -12.73465
       O   -15.49871   -9.11094  -12.89765
      H1   -15.49862   -8.35933  -12.23087
       H   -18.10881  -11.85572  -19.14328
       O   -17.39628  -11.85969  -18.46819
      H1   -17.61684  -12.70458  -17.95847
       H   -10.01522  -13.18700  -16.01054
       O   -10.25957  -13.41394  -16.91364
      H1   -11.22275  -13.45942  -16.80145
       H   -12.79758  -15.50851  -18.27048
       O   -13.62809  -15.84989  -18.70163
      H1   -14.14718  -15.02087  -18.66506
       H   -12.69583   -8.72258  -14.08083
       O   -12.57546   -8.48024  -15.02092
      H1   -11.59844   -8.69145  -15.12910
       H   -17.08769  -10.23203  -18.77886
       O   -16.71239   -9.38564  -18.69496
      H1   -15.78554   -9.57697  -18.45182
       H    -8.92210   -7.33430  -17.89660
       O    -8.31099   -7.88235  -17.34433
      H1    -8.86232   -8.30515  -16.62082
       H   -13.50767   -9.29724  -18.42385
       O   -14.28274   -9.83788  -18.16330
      H1   -13.97228  -10.18780  -17.33049
       H    -7.89077   -9.37488  -18.55009
       O    -8.23333  -10.11667  -19.03493
      H1    -7.66982  -10.23068  -19.85622
       H   -17.80595   -9.64981  -16.22325
       O   -18.49537  -10.32016  -16.43213
      H1   -18.07850  -11.03403  -16.94738
       H   -15.28044   -6.78280  -15.24623
       O   -15.99520   -7.42669  -15.10757
      H1   -15.70612   -7.90047  -14.32636
       H   -13.52147  -13.08550  -16.25950
       O   -12.97923  -13.82620  -16.55891
      H1   -12.92360  -14.23436  -15.67549
       H   -15.52229   -6.53132  -18.58909
       O   -14.78326   -6.20287  -19.10411
      H1   -14.08982   -6.73967  -18.87593
       H   -14.14950  -12.68811  -18.72454
       O   -15.05491  -13.10176  -18.93671
      H1   -15.66339  -12.40642  -18.64933
       H   -13.30107   -5.48818  -16.17185
       O   -13.74778   -6.04869  -15.45016
      H1   -13.05926   -6.72461  -15.33091
       H   -11.76410   -3.44972  -16.60288
       O   -12.36376   -4.15256  -16.75268
      H1   -13.00125   -3.67651  -17.28613
       H   -18.15166  -14.42874  -17.55450
       O   -18.44206  -13.79248  -16.89266
      H1   -19.19278  -13.39336  -17.33107
       H   -12.56534   -7.70399  -16.76325
       O   -12.56419   -7.47942  -17.66802
      H1   -11.65703   -7.09854  -17.85771

