90
frame 0 | Written by MDAnalysis XYZWriter (release 2.4.3)
       H    14.48214   -5.14848   -5.56707
       O    13.96775   -5.34057   -6.37506
      H1    13.12572   -5.64656   -6.03276
       H    19.48289   -6.27084  -12.71945
       O    19.08802   -6.15568  -11.84542
      H1    18.65480   -5.25941  -11.87432
       H    10.21465   -2.65437  -13.87217
       O    10.01174   -1.79284  -13.46988
      H1     9.41774   -1.29764  -14.10014
       H    12.88967   -1.63959  -13.85281
       O    13.13300   -2.53661  -13.42306
      H1    12.58143   -3.13149  -13.93182
       H    14.45735   -1.57555  -10.91453
       O    14.40083   -0.57225  -10.81086
      H1    14.56360   -0.48198   -9.86687
       H    10.54650   -2.72959  -11.64510
       O    10.17643   -2.76301  -10.74566
      H1     9.23437   -2.81629  -10.84543
       H    13.79706   -4.37832   -8.07426
       O    13.41412   -4.17110   -8.93493
      H1    12.57762   -4.54911   -8.82675
       H    17.15288   -0.71276  -10.80531
       O    17.92911   -1.23886  -11.23810
      H1    18.50911   -1.40497  -10.42885
       H    14.20994   -3.77539  -10.84201
       O    14.68190   -3.83396  -11.71198
      H1    14.09847   -3.32850  -12.29920
       H    17.53624   -0.47437   -7.55933
       O    16.83634   -1.07949   -7.40825
      H1    16.90853   -1.70186   -8.12159
       H     9.89943   -1.08499  -10.39587
       O     9.38237   -0.30991  -10.08820
      H1     8.54741   -0.22025  -10.54823
       H    15.29222   -0.41771   -7.55795
       O    14.43252   -0.27552   -7.94236
      H1    13.96259   -0.76179   -7.24910
       H    11.23407   -4.72335  -15.07224
       O    10.48196   -4.50426  -14.46199
      H1    10.47845   -5.26299  -13.87183
       H    18.47264   -1.27136  -13.54940
       O    18.38956   -2.01880  -14.18163
      H1    17.98541   -2.68970  -13.54045
       H    16.37111   -6.20818   -9.30748
       O    16.75470   -6.08152   -8.42689
      H1    17.50358   -5.56469   -8.60217
       H    18.87226   -4.18153   -8.01250
       O    18.76754   -4.36596   -8.99654
      H1    19.36089   -5.14387   -9.04383
       H    17.71135   -2.91610  -11.49583
       O    17.59494   -3.70035  -12.08579
      H1    16.64955   -3.72503  -12.25080
       H    15.39299   -3.43204   -9.07745
       O    16.27490   -3.00211   -9.09925
      H1    16.93437   -3.68808   -9.29392
       H    12.95379   -3.82468  -15.84958
       O    12.84348   -4.73146  -15.50882
      H1    13.05288   -5.25233  -16.28262
       H    12.16290    1.63806  -11.56481
       O    12.64906    1.15380  -12.20241
      H1    13.26037    0.69627  -11.65361
       H    10.27707   -4.42177   -8.56506
       O    10.72849   -4.97366   -9.26246
      H1    10.60571   -4.30125   -9.98609
       H    16.51228   -6.36779  -13.49761
       O    16.71816   -7.04483  -12.81670
      H1    17.54577   -6.68487  -12.42710
       H    14.59690   -5.74954  -14.96754
       O    15.54416   -5.69729  -14.85161
      H1    15.88031   -6.33125  -15.51230
       H     9.75066   -6.17199  -11.90093
       O    10.61156   -5.92836  -12.23786
      H1    11.27613   -6.30447  -11.65593
       H    13.36005   -2.83164   -6.37505
       O    12.75960   -2.31515   -6.96542
      H1    12.89310   -2.83002   -7.77348
       H    10.87452   -2.82344   -7.03995
       O     9.97881   -3.05652   -7.18063
      H1     9.61906   -2.15036   -7.14866
       H    12.50004    0.30524  -13.65126
       O    12.42996   -0.26279  -14.46962
      H1    13.19992    0.01481  -15.04024
       H    15.75615   -7.10111  -10.99855
       O    15.33723   -7.49841  -10.24012
      H1    15.79480   -8.34016  -10.26732
       H    13.63528   -7.19769  -11.12139
       O    12.84225   -7.44091  -11.58394
      H1    12.64748   -8.29258  -11.24217
       H    16.14232    1.49921  -12.70016
       O    15.70570    0.86449  -13.28635
      H1    15.05350    0.55384  -12.60401

