90
frame 1 | Written by MDAnalysis XYZWriter (release 2.4.3)
       H    -0.71227   11.14233    5.61295
       O    -0.54952   10.26989    5.23091
      H1    -0.80905   10.40157    4.29625
       H    -0.44181   12.33292    8.66448
       O    -0.67549   12.35232    9.61444
      H1    -0.00519   11.70245    9.86309
       H     6.94117   13.74165    1.37404
       O     7.11914   12.81142    1.37389
      H1     6.72859   12.47878    2.23350
       H     4.12862   14.49045    1.76663
       O     3.71169   13.89247    2.34412
      H1     4.29129   13.93581    3.11144
       H     0.98115   11.87622    2.36730
       O     1.32249   11.02035    2.74764
      H1     0.84919   10.47301    2.08924
       H    -0.54537   13.65168    3.03812
       O    -0.99616   14.00372    3.77235
      H1    -1.76719   14.42642    3.41351
       H     4.76226   11.40008    0.66639
       O     5.25062   11.76717   -0.11625
      H1     5.93720   12.30503    0.32029
       H     4.34900    9.75216    2.32672
       O     3.87238   10.43899    1.88911
      H1     2.99537   10.33125    2.38186
       H     1.99755   14.28520    5.06346
       O     1.19902   14.01554    5.45216
      H1     0.60767   14.06236    4.71192
       H    -0.32307   13.13772    6.37741
       O    -0.92670   12.48033    6.78628
      H1    -1.74125   12.81160    6.44976
       H     3.05859   12.36853    7.88780
       O     2.43192   11.63722    7.61778
      H1     2.37759   11.52964    6.68792
       H    -1.29588    9.28858    1.31765
       O    -0.80957    9.60669    2.08815
      H1    -0.62491    8.75099    2.49922
       H     2.53994    7.35469    1.59889
       O     1.96354    6.59846    1.71475
      H1     2.21928    6.15983    2.56211
       H     5.11925   12.60912    7.21326
       O     4.62654   13.33677    7.58728
      H1     4.37730   13.77352    6.72550
       H     0.22682    6.26239    2.00861
       O    -0.70957    6.48090    1.96209
      H1    -1.04873    6.03102    2.72843
       H     4.51535    5.69489    5.10674
       O     3.88629    6.31566    4.64252
      H1     3.54395    6.88224    5.34764
       H     7.10076   11.38239    6.74222
       O     6.96694   12.21997    6.36084
      H1     6.30818   12.05285    5.67610
       H     4.59473    9.69403    6.56157
       O     5.39458    9.97661    6.14329
      H1     5.99096    9.62377    6.81359
       H     5.81024    9.20098    4.51340
       O     5.42727    8.95278    3.64850
      H1     5.11023    8.02727    3.72088
       H    -0.12924    7.43371    6.46797
       O    -0.90930    7.32242    7.04398
      H1    -1.53690    7.86718    6.58764
       H     5.37237    7.85140    8.32511
       O     4.50094    7.46557    8.10488
      H1     4.56755    6.45012    8.05319
       H     0.21453   16.15188    7.96724
       O     0.23069   15.21729    7.62806
      H1     0.79927   15.28396    6.83967
       H     3.83433    8.70441   -0.61509
       O     2.99633    8.36690   -0.29714
      H1     3.13119    7.41596   -0.33470
       H    -2.72628    9.40889    7.30251
       O    -2.69766    9.07838    6.41044
      H1    -1.93590    9.58860    6.05761
       H     3.76324   15.74602    5.36620
       O     3.91909   14.77553    5.36142
      H1     4.87136   14.74116    5.30085
       H     2.71051    7.63602    6.95011
       O     2.15902    7.57057    6.12414
      H1     2.22758    8.44438    5.78426
       H     3.49851   10.73391    5.24426
       O     2.61541   10.31499    5.27798
      H1     2.16486   10.82960    4.56575
       H     0.61422   14.43120    1.62259
       O     1.04037   13.55548    1.53629
      H1     1.93125   13.68214    1.87301
       H     2.55799   10.21186   10.21849
       O     1.71152   10.71125   10.13269
      H1     1.89017   11.03158    9.24449
       H     5.05318   11.37236    3.24976
       O     5.65212   12.03331    3.69566
      H1     6.45658   11.46922    3.82777

