90
frame 1 | Written by MDAnalysis XYZWriter (release 2.4.3)
       H    15.72931   -0.38554   11.21158
       O    16.22025    0.10747   10.52896
      H1    16.66504   -0.64486   10.08708
       H    12.03931    2.86177    9.50678
       O    12.37117    2.79240    8.63434
      H1    13.20176    3.26089    8.52271
       H    14.48751    1.12186   12.71901
       O    14.63263    0.24688   13.13458
      H1    15.28820    0.42565   13.86024
       H     7.45598    2.32309   14.57276
       O     8.15404    2.70945   14.02030
      H1     7.76272    2.70645   13.13801
       H    12.00248    1.78558   11.53895
       O    11.26471    1.66745   10.89930
      H1    11.54279    0.75679   10.55020
       H     6.76502    4.01478   11.10166
       O     7.55979    3.74511   11.52735
      H1     7.70907    2.86398   11.15439
       H    13.94817    0.09013    7.88659
       O    14.89577    0.10275    7.78508
      H1    15.17780    0.00954    8.67472
       H     9.05087   -1.45868   13.31909
       O     9.60461   -1.16451   12.58802
      H1    10.37399   -0.82690   13.17424
       H    13.57369    1.07886   16.03213
       O    12.66502    1.12052   15.62525
      H1    12.13737    1.24602   16.44577
       H    10.38973   -3.13945   15.58230
       O     9.79268   -2.88000   16.38284
      H1     9.57310   -3.79765   16.65966
       H    11.19095   -4.58782   13.92240
       O    11.49259   -4.02943   14.68001
      H1    11.40465   -4.60883   15.41555
       H     9.52789   -1.64260    6.27538
       O     9.81391   -1.07915    6.99535
      H1     9.08889   -0.49088    7.06456
       H     5.71575   -1.71703   12.49613
       O     6.08351   -1.67249   11.59822
      H1     5.68965   -2.46647   11.17461
       H    11.49013   -1.01368   11.26663
       O    11.97213   -1.27962   10.49007
      H1    12.75865   -1.70570   10.81126
       H    10.85742   -6.41800   11.69791
       O    10.93430   -6.04776   12.59931
      H1    10.12801   -5.53212   12.62439
       H     9.52259    4.75753   11.44701
       O    10.49821    4.59147   11.48131
      H1    10.55575    3.63426   11.29591
       H    14.78869   -2.63041   12.21941
       O    14.45609   -2.38850   11.36391
      H1    14.37211   -3.28001   10.94968
       H    14.00568    2.79949   12.79679
       O    14.02546    2.56420   11.81449
      H1    14.81065    2.97479   11.50920
       H    11.61081    0.38225   13.99851
       O    11.93904   -0.20535   13.30377
      H1    12.88196   -0.33938   13.46920
       H    11.34546   -0.27574    7.62628
       O    12.15799    0.23117    7.61337
      H1    11.97521    0.99876    8.13024
       H     9.31006    0.80322   11.48365
       O     8.42933    1.06242   11.16549
      H1     7.98012    0.23639   11.37148
       H    15.06321   -1.59144   14.96918
       O    15.98532   -1.88192   14.89442
      H1    16.31007   -1.75986   15.83479
       H    10.78218   -2.72021    9.55192
       O    10.42343   -3.35751    8.91906
      H1    10.01828   -2.70693    8.38843
       H    12.71075   -2.61919   15.25624
       O    13.34391   -1.91830   15.48649
      H1    13.04981   -1.04935   15.19260
       H     7.75328   -3.09367    8.40349
       O     7.73628   -3.78424    9.11777
      H1     8.62724   -3.77590    9.49511
       H    11.28426   -6.09177    9.26461
       O    11.09726   -6.93662    9.72700
      H1    10.12153   -7.11210    9.68513
       H     7.93665   -2.16352   15.51118
       O     7.39156   -2.37442   14.76566
      H1     7.99338   -2.73544   14.09691
       H    11.62938   -4.23326    7.84972
       O    12.26398   -4.98171    7.74742
      H1    12.37161   -4.88013    6.79463
       H     8.09619   -4.30814   12.52826
       O     8.89840   -3.87195   12.86679
      H1     8.99645   -3.17205   12.20492
       H     9.29448    0.50970   15.94624
       O     9.16700    0.19930   15.02411
      H1     8.93976    0.91116   14.43164

