90
frame 1 | Written by MDAnalysis XYZWriter (release 2.4.3)
       H   -11.51582  -19.12224   -8.15629
       O   -11.87379  -18.99909   -9.05074
      H1   -11.64219  -19.89615   -9.38488
       H    -3.58818  -16.43761   -6.00838
       O    -3.52759  -15.46416   -5.93326
      H1    -3.23789  -15.33619   -5.02579
       H    -1.75421  -15.27347  -10.45041
       O    -1.99616  -14.93130  -11.31067
      H1    -2.72125  -14.32986  -11.13989
       H    -7.21766  -18.55874  -11.53117
       O    -6.41245  -18.66530  -11.02455
      H1    -5.93673  -17.82507  -11.02550
       H   -10.67603  -17.60822   -9.75484
       O    -9.78685  -17.19543   -9.84742
      H1    -9.96592  -16.26077   -9.46319
       H    -6.20744  -18.62308  -15.38800
       O    -5.27867  -18.55590  -15.59510
      H1    -4.98448  -18.08267  -14.78537
       H    -6.54356  -14.14025   -8.40599
       O    -7.41142  -13.86692   -8.73554
      H1    -7.43909  -12.96583   -8.41756
       H    -8.49947  -14.24247   -7.34098
       O    -9.26480  -14.44471   -6.81244
      H1    -9.66912  -13.60827   -6.59356
       H    -4.27622  -15.51765  -13.67930
       O    -4.17460  -16.41563  -13.98090
      H1    -3.92210  -16.95187  -13.22643
       H    -7.76061  -18.22921   -3.13635
       O    -6.88769  -18.61625   -3.45972
      H1    -6.78319  -18.07801   -4.28797
       H    -8.46449  -15.04048   -3.21034
       O    -9.17157  -15.36832   -3.80971
      H1    -8.83346  -14.91581   -4.61261
       H    -5.14985  -13.26763  -11.39182
       O    -4.52287  -12.92003  -10.66754
      H1    -3.99235  -12.18525  -11.11220
       H    -6.75398  -15.95145  -13.71058
       O    -6.87563  -16.35977  -12.84392
      H1    -7.75544  -16.75595  -13.01487
       H    -6.78634  -14.75659  -11.85512
       O    -7.00984  -13.86434  -11.54653
      H1    -7.23469  -13.99281  -10.59890
       H    -0.45925  -17.31562   -9.86761
       O    -0.91763  -17.16393   -9.00687
      H1    -0.23953  -16.61323   -8.51546
       H    -8.68332  -17.94058   -8.95156
       O    -7.97749  -18.53283   -8.63266
      H1    -7.37791  -18.47194   -9.43404
       H    -7.72404  -10.95023  -12.30724
       O    -7.98981  -11.40296  -11.51692
      H1    -7.64769  -12.30524  -11.63090
       H   -11.03985  -12.46770  -10.58338
       O   -10.14296  -12.78569  -10.46583
      H1    -9.57823  -12.02959  -10.65336
       H    -4.09915  -18.89017   -5.18924
       O    -4.43139  -18.33451   -5.96478
      H1    -5.45281  -18.26828   -5.83892
       H   -14.71582  -16.70457  -11.66865
       O   -13.76636  -16.81231  -11.74592
      H1   -13.64072  -17.37294  -10.98601
       H    -9.52244  -17.81004  -13.17494
       O    -9.34847  -18.48196  -12.50391
      H1    -9.61175  -18.01220  -11.70124
       H    -7.26733  -17.93759   -7.18759
       O    -7.07309  -17.73218   -6.28179
      H1    -7.21730  -16.79441   -6.18594
       H    -4.73744  -15.69692   -8.64633
       O    -4.79342  -14.70920   -8.48668
      H1    -4.51754  -14.38945   -9.31186
       H    -3.65482  -17.76524  -10.15128
       O    -3.71340  -17.01848   -9.55781
      H1    -2.79935  -16.95281   -9.28219
       H   -10.49651  -14.99567   -7.93361
       O   -10.89011  -15.09045   -8.82761
      H1   -10.29125  -14.47634   -9.27992
       H    -9.14344  -16.28895  -15.53755
       O    -9.60138  -16.59186  -14.76244
      H1   -10.37563  -16.09447  -14.80729
       H    -5.67687  -15.12811   -6.06134
       O    -6.46282  -15.27124   -5.48598
      H1    -6.05627  -15.10030   -4.62909
       H    -9.00307  -19.81932   -5.19089
       O    -9.51579  -18.99474   -5.24681
      H1    -8.90454  -18.46582   -5.71413
       H    -9.55936  -18.48756   -3.61904
       O    -9.51271  -18.11833   -2.73109
      H1    -9.23224  -17.23027   -2.92200
       H    -3.34115  -19.24940  -12.50930
       O    -3.14627  -18.28724  -12.40171
      H1    -2.20825  -18.37245  -12.61246

