90
frame 1 | Written by MDAnalysis XYZWriter (release 2.4.3)
       H   -12.71404    6.97439   14.83104
       O   -12.09603    6.86597   15.59432
      H1   -11.82877    7.75254   15.83917
       H    -5.31940    5.02210   16.68528
       O    -5.25505    5.38606   17.62319
      H1    -4.37154    5.15602   17.89411
       H    -9.34156    6.79363   13.86788
       O    -9.39164    7.73488   13.54046
      H1    -9.29787    8.11198   14.43850
       H    -3.31554   11.44985   12.54889
       O    -2.48978   10.97905   12.74551
      H1    -1.73903   11.61160   12.59082
       H    -3.54159    7.71536   18.49319
       O    -3.01178    7.55283   19.34075
      H1    -3.12421    6.61098   19.58745
       H   -10.24427    4.40388   14.38683
       O   -10.33191    5.23850   13.91253
      H1   -10.87862    5.80293   14.49050
       H    -9.79440    4.72309   17.95446
       O   -10.82273    4.79433   18.12852
      H1   -10.93616    4.48519   19.04336
       H    -4.06697    3.05271   13.29953
       O    -4.04694    2.10387   13.60514
      H1    -3.11081    1.90125   13.33492
       H    -8.82261    2.40085   13.97435
       O    -8.01307    2.77989   13.57942
      H1    -7.40752    2.10905   14.00865
       H    -8.78334   11.79037   11.76715
       O    -9.35102   12.36041   12.35003
      H1   -10.02815   11.75887   12.71941
       H    -6.58027   10.91836   14.98061
       O    -6.40502   10.20746   15.61007
      H1    -6.23732    9.41907   15.05061
       H    -6.48062    6.98446   13.90682
       O    -6.49987    7.60581   14.68353
      H1    -7.27691    7.27625   15.17749
       H   -11.16471   10.41831   14.85739
       O   -11.26128   10.60133   13.90640
      H1   -10.85633    9.83610   13.44940
       H    -8.24013   10.02667   18.21432
       O    -8.33371    9.59442   17.36326
      H1    -7.71059   10.12142   16.84121
       H     0.17996    7.07254   15.93058
       O    -0.12825    7.32890   15.07310
      H1    -0.98054    6.90978   15.22746
       H   -10.44084    8.44381   11.47035
       O   -10.98830    9.20749   11.61949
      H1   -11.34091    9.43899   10.71879
       H    -6.85488   13.17452   13.89289
       O    -7.35446   12.41980   14.27590
      H1    -8.11601   12.20994   13.67496
       H    -9.03138    6.40817   12.15833
       O    -8.61488    5.97971   11.37374
      H1    -9.00543    5.11977   11.46435
       H    -7.65770   11.00803    9.99046
       O    -7.38100   10.77182   10.90446
      H1    -6.66674   11.40361   11.10939
       H    -5.82958    9.60974   10.83868
       O    -5.15643    9.01512   11.14678
      H1    -4.81393    9.44486   11.96667
       H    -4.83797   13.15515   15.76270
       O    -4.48708   12.67793   14.99936
      H1    -3.51788   12.66478   15.26710
       H    -5.32682    4.70714   14.40293
       O    -5.65333    4.10987   15.04071
      H1    -6.48799    3.85721   14.63731
       H    -7.91197    4.48923   18.93809
       O    -7.90247    4.45153   17.95348
      H1    -6.93386    4.55185   17.87280
       H    -3.42794    5.56365   13.52973
       O    -3.86818    4.89781   13.01651
      H1    -4.61895    5.35735   12.65872
       H    -2.38470    5.68656   15.77914
       O    -2.53108    6.33569   15.10390
      H1    -2.96112    7.10387   15.51549
       H    -5.93576    7.18332   11.84369
       O    -6.05270    6.27990   12.20907
      H1    -6.96420    6.13956   11.90192
       H   -10.22343    9.77117   16.83928
       O   -11.04328    9.46255   16.48284
      H1   -11.57698    9.44411   17.28748
       H    -2.27541   10.86425   14.63112
       O    -2.27657   11.08099   15.57590
      H1    -1.35421   10.85471   15.77367
       H    -3.34678    9.37643   16.38679
       O    -3.57915    8.56188   16.71163
      H1    -4.52961    8.57595   16.51268
       H    -7.98666    6.18168   17.19469
       O    -8.57552    6.82879   16.72843
      H1    -8.28579    7.66896   17.12817

