90
frame 1 | Written by MDAnalysis XYZWriter (release 2.4.3)
       H     4.68003    4.11798   12.78900
       O     4.75749    3.54766   12.00127
      H1     4.21283    2.77941   12.33875
       H     4.92069    8.64336   14.33197
       O     4.55671    8.06049   15.02548
      H1     4.59000    7.24611   14.47683
       H     6.76502    4.01478   11.10166
       O     7.55979    3.74511   11.52735
      H1     7.70907    2.86398   11.15439
       H     0.50157   11.41306   13.49705
       O     0.37926   11.85176   12.67030
      H1     0.88325   11.35205   12.06876
       H     2.37241    9.50656   13.10148
       O     3.14245   10.08061   12.94236
      H1     3.12897   10.67181   13.67134
       H     4.69435    4.33958   10.39335
       O     4.78112    4.65288    9.47378
      H1     4.17397    4.09937    8.90742
       H     3.89828    8.18689    9.88174
       O     3.96647    9.05224   10.34093
      H1     3.87485    8.72814   11.25115
       H    -0.44181   12.33292    8.66448
       O    -0.67549   12.35232    9.61444
      H1    -0.00519   11.70245    9.86309
       H     3.23375    6.22030   11.69491
       O     3.48222    6.82025   12.37330
      H1     2.69336    7.23144   12.70625
       H     0.91945    5.49039   10.93086
       O     1.75219    4.98577   10.70418
      H1     2.00730    4.57564   11.51218
       H     7.33498    8.34832   12.65539
       O     7.40829    7.39767   12.57063
      H1     8.35092    7.35805   12.85382
       H    -1.55782    7.60683   10.29313
       O    -0.65404    7.36657   10.65418
      H1    -0.02808    7.46665    9.92066
       H     7.18282    9.03409    9.40888
       O     6.30429    9.26253    9.16029
      H1     5.73282    9.01715    9.99124
       H     3.05859   12.36853    7.88780
       O     2.43192   11.63722    7.61778
      H1     2.37759   11.52964    6.68792
       H     5.11925   12.60912    7.21326
       O     4.62654   13.33677    7.58728
      H1     4.37730   13.77352    6.72550
       H     4.51535    5.69489    5.10674
       O     3.88629    6.31566    4.64252
      H1     3.54395    6.88224    5.34764
       H     4.59473    9.69403    6.56157
       O     5.39458    9.97661    6.14329
      H1     5.99096    9.62377    6.81359
       H    -0.12924    7.43371    6.46797
       O    -0.90930    7.32242    7.04398
      H1    -1.53690    7.86718    6.58764
       H     5.37237    7.85140    8.32511
       O     4.50094    7.46557    8.10488
      H1     4.56755    6.45012    8.05319
       H     7.66622   11.26584   11.17763
       O     6.85509   11.73310   10.98363
      H1     6.39346   11.11785   10.44671
       H     0.35204    8.48517   12.11992
       O     0.98876    8.32216   12.79068
      H1     0.42774    8.00739   13.51194
       H     8.38082    7.55128    9.30986
       O     8.57933    8.02967   10.13417
      H1     8.05435    7.55920   10.84506
       H     6.51614    4.75856   14.35518
       O     5.87072    5.44362   14.20834
      H1     6.29590    6.00882   13.51435
       H     2.71051    7.63602    6.95011
       O     2.15902    7.57057    6.12414
      H1     2.22758    8.44438    5.78426
       H     7.87773    7.98240    6.05057
       O     7.07006    7.77636    6.52009
      H1     6.72221    7.26637    5.78182
       H     5.26517    9.60462   12.89317
       O     6.01935    9.75393   13.42350
      H1     5.94055   10.74494   13.59820
       H     4.82798    4.41319    7.03211
       O     5.30592    5.10360    6.58212
      H1     6.22155    4.75814    6.65829
       H     7.06698    6.64471    7.82276
       O     7.26199    6.06083    8.58905
      H1     6.37194    5.70033    8.81834
       H     3.49851   10.73391    5.24426
       O     2.61541   10.31499    5.27798
      H1     2.16486   10.82960    4.56575
       H     2.55799   10.21186   10.21849
       O     1.71152   10.71125   10.13269
      H1     1.89017   11.03158    9.24449

