90
frame 1 | Written by MDAnalysis XYZWriter (release 2.4.3)
       H    -2.50972  -10.24697  -14.16942
       O    -1.97818   -9.63517  -13.59098
      H1    -2.31625   -9.90189  -12.73687
       H    -2.33839  -11.42165  -15.96573
       O    -3.08954  -11.29053  -15.32287
      H1    -2.87652  -12.02127  -14.68260
       H    -1.95366  -11.22386  -18.16830
       O    -1.50923  -11.17386  -17.28278
      H1    -0.60136  -11.35957  -17.46235
       H    -2.35125  -16.09671  -14.38800
       O    -1.40912  -16.02371  -14.76652
      H1    -0.75876  -16.27212  -14.06718
       H     4.10615  -15.23507  -13.92647
       O     4.93326  -15.65598  -13.63607
      H1     5.51559  -14.88868  -13.47223
       H     2.15569  -13.28227  -11.99512
       O     3.04796  -13.15612  -12.36326
      H1     2.90739  -13.47543  -13.24730
       H     2.10486  -12.08551  -17.22501
       O     2.99704  -11.78527  -17.29552
      H1     3.22547  -12.20928  -18.12803
       H     0.21931  -14.75040  -17.28969
       O     0.59220  -14.75917  -16.42067
      H1    -0.14620  -14.96662  -15.82969
       H     3.69205   -6.51908  -18.67899
       O     4.58452   -6.86769  -18.87565
      H1     4.65085   -7.02799  -19.83863
       H     1.33608  -16.15620  -13.79425
       O     0.70915  -16.05126  -13.03936
      H1     0.91581  -15.11247  -12.76373
       H    -2.10102  -14.18543  -13.71675
       O    -2.47183  -13.29789  -13.64020
      H1    -1.65855  -12.96056  -13.22224
       H     0.36116   -6.37339  -15.79519
       O     0.33538   -7.27920  -15.46472
      H1     0.09450   -7.04337  -14.52287
       H     4.78798  -13.23789  -19.34733
       O     4.41786  -12.38954  -19.66502
      H1     4.90220  -11.65380  -19.23748
       H     2.75496  -17.44450  -18.15126
       O     3.11559  -16.76889  -18.75151
      H1     3.38910  -16.07956  -18.10885
       H    -1.33537   -9.25700  -16.92491
       O    -1.49969   -8.31871  -17.19386
      H1    -1.15595   -7.77145  -16.41681
       H     2.55210  -18.01849  -15.17640
       O     2.01762  -17.20229  -15.23184
      H1     1.32010  -17.54720  -15.82470
       H     5.74631   -9.87429  -19.22514
       O     6.00053  -10.61606  -18.65920
      H1     5.61598  -10.54390  -17.75697
       H     1.05543  -13.51563  -19.47293
       O     0.97063  -12.59454  -19.06511
      H1     0.47138  -12.18866  -19.78965
       H     6.49092  -13.70087  -15.79202
       O     5.69174  -13.15334  -15.83008
      H1     5.91326  -12.48447  -15.14352
       H     2.38738  -14.30394  -15.72995
       O     2.88874  -13.92409  -15.03150
      H1     3.58502  -13.52982  -15.51252
       H     6.70887  -11.30211  -13.72508
       O     7.14979  -12.15697  -14.02377
      H1     7.02571  -12.67117  -13.17135
       H     1.57475   -8.87714  -14.88718
       O     2.11172   -9.47302  -14.29959
      H1     1.47205  -10.14988  -14.06346
       H    -0.18045  -12.72329  -12.17132
       O     0.06755  -13.62581  -12.36200
      H1    -0.53530  -14.08784  -11.73910
       H    -0.84896  -15.98899  -18.94661
       O    -1.11926  -15.11944  -18.54392
      H1    -1.93740  -15.44132  -18.11250
       H    -0.51545  -10.32197  -13.08992
       O     0.17303  -10.94590  -12.73748
      H1     0.62709  -10.44370  -11.99881
       H     4.08669   -6.94521  -13.80112
       O     3.91923   -7.68156  -13.15969
      H1     3.20435   -8.19554  -13.61437
       H     3.12444  -10.04169  -17.96487
       O     3.05145   -9.52280  -18.77641
      H1     3.81930   -8.94263  -18.70334
       H     4.99692  -13.83361  -17.39627
       O     4.85539  -14.50399  -18.13609
      H1     5.74183  -14.86776  -18.29327
       H     3.69236  -10.86251  -15.96906
       O     4.56342  -10.50785  -15.73883
      H1     4.34309   -9.90204  -15.00189
       H     4.03961  -11.66206  -11.92046
       O     4.19019  -10.84207  -11.48215
      H1     4.75191  -10.26514  -12.03990

