90
frame 1 | Written by MDAnalysis XYZWriter (release 2.4.3)
       H    -4.32914  -12.45706  -16.04326
       O    -4.83235  -13.22987  -16.35891
      H1    -5.64949  -12.81946  -16.62151
       H    -5.44075  -13.41953  -14.80779
       O    -5.84751  -13.48399  -13.89655
      H1    -6.66362  -13.01861  -14.01501
       H    -2.33839  -11.42165  -15.96573
       O    -3.08954  -11.29053  -15.32287
      H1    -2.87652  -12.02127  -14.68260
       H    -1.95366  -11.22386  -18.16830
       O    -1.50923  -11.17386  -17.28278
      H1    -0.60136  -11.35957  -17.46235
       H    -8.77801  -12.07829  -14.68130
       O    -8.33954  -12.86688  -15.01913
      H1    -7.81526  -12.46976  -15.70386
       H    -2.35125  -16.09671  -14.38800
       O    -1.40912  -16.02371  -14.76652
      H1    -0.75876  -16.27212  -14.06718
       H     1.06579  -17.59378  -19.63050
       O     0.31747  -17.82320  -19.10918
      H1     0.73647  -18.02036  -18.32419
       H     0.21931  -14.75040  -17.28969
       O     0.59220  -14.75917  -16.42067
      H1    -0.14620  -14.96662  -15.82969
       H    -7.21766  -18.55874  -11.53117
       O    -6.41245  -18.66530  -11.02455
      H1    -5.93673  -17.82507  -11.02550
       H    -6.20744  -18.62308  -15.38800
       O    -5.27867  -18.55590  -15.59510
      H1    -4.98448  -18.08267  -14.78537
       H   -10.24701  -11.66790  -17.75514
       O   -10.54799  -10.72214  -17.76562
      H1    -9.80305  -10.36927  -18.30961
       H    -9.22244  -15.69295  -17.96856
       O    -8.45622  -15.63995  -17.32213
      H1    -8.79941  -14.84283  -16.91942
       H    -4.27622  -15.51765  -13.67930
       O    -4.17460  -16.41563  -13.98090
      H1    -3.92210  -16.95187  -13.22643
       H    -2.10102  -14.18543  -13.71675
       O    -2.47183  -13.29789  -13.64020
      H1    -1.65855  -12.96056  -13.22224
       H   -10.01522  -13.18700  -16.01054
       O   -10.25957  -13.41394  -16.91364
      H1   -11.22275  -13.45942  -16.80145
       H   -12.79758  -15.50851  -18.27048
       O   -13.62809  -15.84989  -18.70163
      H1   -14.14718  -15.02087  -18.66506
       H    -6.75398  -15.95145  -13.71058
       O    -6.87563  -16.35977  -12.84392
      H1    -7.75544  -16.75595  -13.01487
       H    -6.78634  -14.75659  -11.85512
       O    -7.00984  -13.86434  -11.54653
      H1    -7.23469  -13.99281  -10.59890
       H    -9.74542  -19.19563  -17.39406
       O   -10.22948  -19.05770  -16.60933
      H1   -10.39294  -18.09437  -16.60141
       H    -4.23970  -14.70872  -17.02785
       O    -3.81381  -15.50806  -17.47591
      H1    -3.73378  -16.04793  -16.67241
       H    -6.28607  -10.78012  -17.11193
       O    -6.88969  -11.53857  -16.91751
      H1    -7.41824  -11.26020  -17.69618
       H    -7.89077   -9.37488  -18.55009
       O    -8.23333  -10.11667  -19.03493
      H1    -7.66982  -10.23068  -19.85622
       H    -9.52244  -17.81004  -13.17494
       O    -9.34847  -18.48196  -12.50391
      H1    -9.61175  -18.01220  -11.70124
       H    -1.29497  -17.61666  -16.06549
       O    -1.16777  -18.46639  -16.45252
      H1    -0.92777  -18.96445  -15.62730
       H    -0.84896  -15.98899  -18.94661
       O    -1.11926  -15.11944  -18.54392
      H1    -1.93740  -15.44132  -18.11250
       H    -6.68599  -16.71382  -18.04801
       O    -6.00603  -16.97605  -18.71374
      H1    -5.23602  -16.52002  -18.33345
       H   -11.17330  -16.53670  -19.71840
       O   -10.58931  -16.61506  -18.94853
      H1   -10.16050  -17.48418  -19.10365
       H    -4.47751  -10.21415  -16.10829
       O    -4.80491   -9.98695  -16.96452
      H1    -4.08038   -9.98608  -17.56277
       H    -9.14344  -16.28895  -15.53755
       O    -9.60138  -16.59186  -14.76244
      H1   -10.37563  -16.09447  -14.80729
       H    -3.34115  -19.24940  -12.50930
       O    -3.14627  -18.28724  -12.40171
      H1    -2.20825  -18.37245  -12.61246

