90
frame 0 | Written by MDAnalysis XYZWriter (release 2.4.3)
       H     4.97867    7.54394  -14.16748
       O     4.71257    7.45387  -13.25545
      H1     3.94329    8.05423  -13.27369
       H     7.40353   10.38724   -9.80444
       O     7.07043   11.17761  -10.19990
      H1     6.97289   11.73748   -9.39929
       H     9.75457   13.19458   -8.82031
       O     9.95232   13.57419   -7.96187
      H1    10.67843   14.23743   -8.17978
       H     3.83037   10.66813  -12.05102
       O     4.05058   11.01969  -12.92690
      H1     4.99683   11.09888  -12.94223
       H     6.86218    9.13277  -12.76869
       O     6.75129    9.96065  -13.29260
      H1     7.64749    9.93954  -13.59991
       H     0.46190    7.81551   -8.12864
       O    -0.13107    7.88504   -7.31740
      H1     0.00012    8.84323   -7.06262
       H     2.24553    8.67522   -8.85180
       O     1.41468    8.53911   -9.39981
      H1     1.81797    8.08428  -10.15118
       H     5.90882    7.61288   -6.60474
       O     5.84025    7.48411   -7.55884
      H1     5.96073    6.49181   -7.59936
       H     1.10823   10.92638  -11.60261
       O     1.32723   11.19681  -10.66827
      H1     1.45342   10.36008  -10.16572
       H     4.66604   10.47213   -6.20769
       O     5.50966   10.85221   -6.09199
      H1     5.96518   10.20043   -5.58517
       H     8.69338    7.50901  -11.28520
       O     9.35520    6.86287  -11.02436
      H1    10.20529    7.19801  -11.46327
       H     1.80777    9.43190  -14.14424
       O     2.67665    8.96911  -14.25121
      H1     3.30323    9.63711  -13.83187
       H     3.86743   11.12283   -9.95290
       O     4.21727   10.30218  -10.28669
      H1     5.16449   10.42315  -10.20923
       H     4.12590    8.62298   -7.65711
       O     3.52920    9.30060   -7.89140
      H1     4.01468    9.74533   -8.62190
       H     5.78792    8.00631  -11.72076
       O     6.68145    7.99283  -11.34424
      H1     6.48818    8.50708  -10.53367
       H     0.31325   11.39264  -13.30583
       O     0.33281   10.43869  -13.13012
      H1    -0.51521   10.31558  -12.66687
       H     0.31120   12.78988  -10.41986
       O    -0.10696   13.64720  -10.41208
      H1    -1.02471   13.36123  -10.16796
       H     6.08533   15.85660   -9.28612
       O     6.29496   15.73232   -8.34338
      H1     6.69614   14.86182   -8.15120
       H     9.30634   12.96189  -11.24279
       O     9.75685   12.50062  -10.53345
      H1     9.06342   11.89198  -10.22482
       H     8.26727   13.15345  -13.45985
       O     8.12319   13.07167  -12.50002
      H1     7.18136   13.11344  -12.29522
       H     7.06872    8.62632   -8.04059
       O     7.69263    9.10930   -8.61781
      H1     8.43861    9.50845   -8.15868
       H     4.71398    5.80370  -12.33590
       O     4.59407    4.86836  -12.15223
      H1     5.08270    4.49953  -12.93147
       H     6.81470   13.53600   -6.47889
       O     7.13515   13.78913   -5.66896
      H1     6.26486   13.75197   -5.20748
       H     4.71992   14.68702  -10.77866
       O     5.57986   14.97594  -11.09705
      H1     5.33650   15.82893  -11.62121
       H     1.67966    5.50815  -11.89676
       O     1.99882    6.38484  -11.60676
      H1     2.97857    6.13126  -11.55546
       H     3.37638   12.96579   -7.81600
       O     3.89614   13.19419   -8.56221
      H1     3.79721   14.12792   -8.74498
       H     6.40745   11.76548   -7.48451
       O     6.36056   12.59463   -7.97099
      H1     5.45125   12.81261   -7.95800
       H    10.60241   10.25591   -7.54369
       O     9.73089   10.69020   -7.69380
      H1     9.98120   11.58404   -7.77192
       H     2.90589   13.51210   -5.57689
       O     3.11461   12.55125   -5.72858
      H1     2.49609   12.16422   -4.99711
       H     3.61946   13.24504  -12.91379
       O     4.11838   14.02728  -13.10228
      H1     4.77512   14.07176  -12.41875

