90
frame 1 | Written by MDAnalysis XYZWriter (release 2.4.3)
       H    10.62771   19.92177   15.10385
       O    11.48631   19.50150   15.06030
      H1    11.48647   18.88900   15.86577
       H    18.13078   12.07627   12.07001
       O    18.77709   11.84098   12.79270
      H1    19.25517   11.07955   12.37559
       H    14.78444   19.51954    6.09140
       O    14.75359   19.80263    5.10702
      H1    15.44759   19.22429    4.75518
       H    17.76195   15.82711   11.76890
       O    18.09556   15.41756   10.94906
      H1    17.63035   16.05974   10.32239
       H    11.77433   16.09748    6.68405
       O    12.32797   16.60021    6.04364
      H1    12.53364   17.42071    6.53867
       H    14.15651   12.42193   11.29687
       O    14.32486   12.59974   10.36948
      H1    15.25200   12.44817   10.18481
       H    18.94131   14.50521    7.28552
       O    18.72152   15.47682    7.32834
      H1    18.95225   15.72180    6.42041
       H    11.01200   15.49713   11.34651
       O    10.80735   16.47523   11.29757
      H1    10.28364   16.72723   12.10753
       H    19.59670   17.33434    5.77322
       O    19.24508   16.73965    5.08073
      H1    18.34504   16.99888    4.78806
       H    17.52765   18.91804   11.22886
       O    18.24374   19.36977   10.67045
      H1    17.74734   19.89009   10.00735
       H    17.69053   15.28211   13.69212
       O    17.08100   16.02478   13.45313
      H1    16.18164   15.66340   13.74377
       H    18.03189   13.86128   15.43546
       O    17.44191   13.77252   16.24304
      H1    17.82115   14.47466   16.80615
       H    16.33286   17.16978   12.01754
       O    15.67280   17.85346   11.92227
      H1    15.22293   17.69291   12.76497
       H    14.26143   14.24805   10.09870
       O    14.31220   15.22857   10.24356
      H1    13.96233   15.25099   11.13663
       H    14.46141   18.72462    8.30330
       O    15.33316   18.67615    7.89017
      H1    15.90527   18.29647    8.61998
       H     9.60071   18.51336    9.60127
       O     8.95430   18.29925   10.25074
      H1     9.37328   17.65661   10.80899
       H    16.66232   17.39526    3.64279
       O    16.32977   17.88326    4.43709
      H1    15.74639   17.26382    4.86631
       H    17.42081   13.46734   10.51964
       O    17.22602   12.55269   10.32759
      H1    17.15593   12.53776    9.33571
       H    12.23957   18.86268   17.60396
       O    12.52659   18.00772   17.27501
      H1    13.37682   18.23900   16.88654
       H    13.93314   15.88050    5.39070
       O    14.90400   15.83886    5.24491
      H1    14.83007   14.96626    4.79619
       H    15.82058   18.46625   16.59557
       O    14.93364   18.69952   16.26864
      H1    15.20071   19.30499   15.58579
       H    14.01756   17.10324    9.88336
       O    13.49280   17.92118    9.77479
      H1    13.02829   17.76557   10.66677
       H    10.67403   18.49828    7.19265
       O    11.53712   18.64941    7.61907
      H1    11.49435   19.28297    8.40448
       H    14.91831   15.14804    6.96806
       O    14.98564   14.53593    7.70483
      H1    15.04141   15.21313    8.37829
       H    12.78094   12.64893    8.15899
       O    12.64030   13.60364    8.28131
      H1    13.48756   13.94480    8.03445
       H    19.32048   13.79500   13.34397
       O    19.08618   14.43137   14.01300
      H1    19.78700   15.07418   14.09863
       H    16.36638   11.73181    6.84836
       O    16.46131   12.12446    7.72733
      H1    16.02853   13.02216    7.57578
       H    13.37838   15.46669   13.79166
       O    14.30787   15.19259   13.60846
      H1    14.41726   14.40504   14.21231
       H    18.13132   17.52681    8.89349
       O    17.24659   17.08250    9.04710
      H1    17.30322   16.29322    8.47005
       H    17.71151   17.33837   14.82436
       O    17.78796   17.73963   15.72125
      H1    18.09184   16.97520   16.29089

