90
frame 0 | Written by MDAnalysis XYZWriter (release 2.4.3)
       H   -13.18292    6.90435   14.51152
       O   -12.64234    6.59382   15.21758
      H1   -12.01998    7.35077   15.35960
       H    -8.03728    2.42511    7.93920
       O    -7.70985    2.14252    8.81587
      H1    -8.29685    2.67941    9.42338
       H    -9.21557    6.89027   14.24595
       O    -9.27839    7.46160   13.42593
      H1    -8.39264    7.87241   13.44290
       H   -15.03272    7.83112   10.11821
       O   -15.32027    6.97389   10.60490
      H1   -16.20129    6.85557   10.22850
       H   -10.26069    4.70283   15.29467
       O   -10.63346    4.73991   14.40590
      H1   -11.25604    5.48434   14.53528
       H    -9.20207    2.76637   16.85213
       O   -10.03858    2.55691   16.46165
      H1   -10.64305    3.09469   16.96506
       H   -13.75119   -0.90480   10.39922
       O   -13.35532   -1.49377    9.73087
      H1   -14.16608   -1.91918    9.42921
       H   -15.30672    7.55780   13.44503
       O   -14.59775    6.96802   13.12815
      H1   -14.83044    7.01679   12.24455
       H   -14.16698    3.56413   16.53371
       O   -14.82352    4.14570   16.15180
      H1   -14.69764    4.96105   16.62545
       H   -10.01533    5.06302    8.25812
       O    -9.83284    5.98131    8.45973
      H1    -9.67572    5.90558    9.40190
       H    -8.46864    3.22528   13.40509
       O    -7.55648    3.28926   13.10760
      H1    -7.35334    2.30140   13.11778
       H   -10.35460    2.48376    7.99647
       O   -10.29908    3.40517    7.58746
      H1   -10.18564    3.22716    6.56732
       H   -12.57469    1.60119    9.61235
       O   -12.30441    2.23207    8.90103
      H1   -12.12057    1.60656    8.20310
       H   -10.34034    1.86378   12.86921
       O    -9.84642    1.34021   13.50548
      H1    -9.61863    0.55216   13.01024
       H   -11.55131    7.63707   10.75723
       O   -11.44669    8.49601   11.26198
      H1   -11.31427    9.13799   10.52940
       H    -9.26075    6.91255   11.67109
       O    -8.93010    6.43037   10.90635
      H1    -8.91490    5.51164   11.31633
       H   -13.98473   -0.37264   14.81316
       O   -14.47773   -0.00128   15.57332
      H1   -13.85096    0.75289   15.75294
       H    -8.57854    3.39592   11.48960
       O    -9.06139    3.74188   10.72692
      H1    -9.98833    3.55231   10.96106
       H   -11.48436    6.56513    8.66416
       O   -12.36803    6.77173    9.19409
      H1   -12.74313    5.85424    9.12866
       H   -15.68974    2.68453   12.48609
       O   -15.72687    1.98884   11.80147
      H1   -16.32953    1.32495   12.22001
       H    -8.51986   -0.42458   15.68847
       O    -9.50492   -0.41152   15.78004
      H1    -9.78485    0.36332   15.26232
       H    -9.73498   -0.06680    9.88646
       O    -9.69147    0.07450    8.96147
      H1    -8.85158    0.54752    8.84583
       H   -15.24370    5.12521   13.23906
       O   -15.68214    4.28444   13.48050
      H1   -15.23244    4.08483   14.34605
       H   -13.21263    5.78584   18.28425
       O   -13.74205    6.28900   17.61922
      H1   -13.32075    6.32946   16.77443
       H    -9.04218   -1.54518   11.48370
       O    -8.99926   -0.56045   11.51911
      H1    -8.02289   -0.46924   11.43519
       H   -13.17584    4.76543    7.17497
       O   -13.48287    4.64387    8.09501
      H1   -12.91420    3.84729    8.26489
       H   -12.99656   -0.08936   11.91740
       O   -13.22954    0.68897   11.45841
      H1   -14.01180    1.03095   11.91889
       H   -12.06187    2.43949   11.71435
       O   -11.39421    3.05798   12.07924
      H1   -11.84232    3.53314   12.79926
       H   -13.17506   -2.11101   12.39890
       O   -13.60059   -1.56741   13.16470
      H1   -14.51028   -1.52195   12.85825
       H   -13.10936    1.54606   17.25599
       O   -12.91865    2.11216   16.44779
      H1   -11.95698    2.11890   16.39017

