90
frame 1 | Written by MDAnalysis XYZWriter (release 2.4.3)
       H    14.49552   -9.35845  -12.85161
       O    14.34611   -8.86171  -13.67556
      H1    14.70350   -8.03983  -13.32683
       H    13.05862   -8.49632   -7.58323
       O    13.89164   -9.00267   -7.46897
      H1    14.23555   -8.84083   -6.60791
       H    17.12513   -7.02794   -3.70542
       O    16.78977   -6.74831   -2.81120
      H1    17.30446   -5.95068   -2.62311
       H    12.62611  -10.75175   -9.51445
       O    13.55265  -10.91257   -9.25328
      H1    13.77763  -10.12919   -8.72448
       H    14.68805   -3.99157   -5.76697
       O    14.53892   -4.78631   -6.30385
      H1    13.83944   -5.32550   -5.97706
       H    19.29723   -5.54038  -12.77264
       O    18.51071   -5.58476  -12.24982
      H1    18.15419   -4.71154  -12.18165
       H    14.45293   -1.77101  -11.11344
       O    14.69739   -0.90348  -10.81800
      H1    14.35815   -0.82773   -9.88851
       H    13.56671   -4.42344   -8.04472
       O    13.24348   -4.14640   -8.97021
      H1    12.46487   -4.75119   -9.01431
       H    16.63153   -0.84051  -10.66548
       O    17.49885   -0.65567  -11.03078
      H1    18.11412   -0.84119  -10.30063
       H    17.50567   -6.29196   -6.42339
       O    16.84060   -6.78358   -5.91226
      H1    16.04233   -6.28633   -6.10600
       H    18.42443   -3.56909   -6.32812
       O    18.37192   -4.43448   -6.79940
      H1    17.50562   -4.34569   -7.16764
       H    13.87456   -3.75095  -10.73972
       O    14.03233   -3.35518  -11.61052
      H1    13.10985   -3.18122  -11.91517
       H    18.44395  -10.64746  -12.64877
       O    18.44208  -11.57601  -12.50625
      H1    18.59856  -11.77969  -11.58542
       H    17.73403   -0.29320   -6.78894
       O    17.46523   -1.19989   -6.62290
      H1    16.95693   -1.46214   -7.40866
       H    14.80318   -0.55244   -7.90675
       O    14.02766   -0.02058   -8.24168
      H1    13.32972   -0.66967   -8.02909
       H    18.61353   -1.02150  -14.60803
       O    18.72531   -2.01070  -14.57763
      H1    18.06126   -2.19269  -13.89134
       H    15.93689   -6.20344   -9.17383
       O    16.42969   -5.56391   -8.71098
      H1    17.23273   -5.41695   -9.29250
       H    18.92648   -4.24669   -8.68044
       O    18.57839   -4.04023   -9.55668
      H1    19.35805   -3.95575  -10.11982
       H    17.74357  -10.13742   -6.90180
       O    17.99691   -9.54377   -6.18039
      H1    17.58280   -8.68479   -6.26237
       H    17.10948   -2.29118  -12.00233
       O    17.07350   -2.99902  -12.65951
      H1    16.10882   -3.06553  -12.71797
       H    15.91240   -3.57072   -8.42511
       O    16.38934   -2.68846   -8.73998
      H1    17.18544   -3.18450   -9.11464
       H    10.50524   -4.58076   -8.88593
       O    10.91501   -5.39797   -9.30019
      H1    10.83608   -5.19480  -10.25160
       H    15.75823   -6.27878  -13.82569
       O    16.18210   -6.88347  -13.16200
      H1    17.06332   -6.49018  -13.21683
       H    16.82685  -10.52598   -8.92023
       O    16.90243   -9.59803   -9.27418
      H1    17.85168   -9.37196   -9.31514
       H    13.38917   -2.31918   -6.84426
       O    12.58941   -2.10408   -7.35231
      H1    12.64575   -2.77309   -8.08652
       H    17.78484   -9.50728  -14.37055
       O    18.27372   -9.15541  -13.61714
      H1    17.55385   -8.55001  -13.34357
       H    14.98637   -1.90372   -4.62728
       O    15.02538   -2.10563   -5.57219
      H1    15.88815   -1.48430   -5.67240
       H    15.97386   -9.88906  -10.95969
       O    15.27334  -10.20214  -11.52017
      H1    14.76855  -10.51687  -10.78711
       H    15.65153   -7.04947  -11.29340
       O    14.95854   -7.28483  -10.66440
      H1    15.14059   -8.18945  -10.42341
       H    13.17745   -7.48700  -11.22889
       O    12.29732   -7.62936  -11.54704
      H1    12.20543   -8.56753  -11.37923

