90
frame 3 | Written by MDAnalysis XYZWriter (release 2.4.3)
       H   -14.22272  -11.42338   10.19433
       O   -14.07727  -12.05917    9.44812
      H1   -14.53793  -11.68192    8.68563
       H   -12.12452  -14.71842   14.61642
       O   -12.39641  -15.61853   14.48218
      H1   -13.31494  -15.57360   14.20875
       H   -16.91545  -10.61109   11.97677
       O   -16.63006  -11.53879   11.96620
      H1   -17.42690  -12.02457   12.09903
       H   -19.62266  -12.80554   11.52692
       O   -19.98025  -12.90228   10.60914
      H1   -19.23722  -12.95685    9.98257
       H   -10.45064  -10.42443   10.55515
       O    -9.66809  -10.33180    9.96879
      H1   -10.02985  -10.44018    9.07591
       H   -12.72146  -10.11575   11.46318
       O   -11.93942  -10.48617   11.83196
      H1   -12.13920  -11.39479   11.86775
       H   -17.85911  -15.78492   11.22624
       O   -17.25503  -15.71427   12.00359
      H1   -16.74744  -14.93560   11.85785
       H   -11.12538  -14.11962    9.32299
       O   -10.95501  -14.63164   10.13993
      H1   -11.09855  -15.53372   10.06963
       H   -11.96620  -12.65061   16.01321
       O   -11.56168  -13.29126   15.44573
      H1   -11.45037  -12.86312   14.59846
       H   -14.48185  -13.92330    9.75909
       O   -15.28013  -14.50597    9.86870
      H1   -14.87223  -15.18995   10.44511
       H   -13.46044  -12.10939   13.23561
       O   -14.13073  -11.54220   13.60179
      H1   -14.91866  -11.53487   13.05911
       H   -11.62644  -17.67070   12.47121
       O   -11.67134  -18.26151   13.26226
      H1   -11.86231  -17.74918   14.05804
       H   -18.81392  -12.68243    6.54889
       O   -18.95002  -11.83133    6.95459
      H1   -18.30356  -11.73463    7.71546
       H   -14.73016  -15.49646   12.72626
       O   -14.55285  -14.67717   13.22945
      H1   -15.19765  -14.39246   13.85816
       H   -11.23924  -12.08559    6.53085
       O   -11.07329  -11.19880    6.14158
      H1   -10.11566  -10.94249    6.31185
       H   -12.81316  -18.29271    7.25024
       O   -13.05801  -18.02406    8.13872
      H1   -13.41895  -18.81031    8.66217
       H   -14.02878   -8.46021   11.30424
       O   -14.28204   -9.32860   10.85198
      H1   -14.51555   -8.94834    9.97724
       H   -11.62912  -13.45455   11.53552
       O   -12.19658  -13.14210   12.28263
      H1   -12.75450  -13.92851   12.43920
       H   -13.88889  -12.34721    3.92753
       O   -14.29116  -12.90858    4.60995
      H1   -14.15326  -12.41264    5.43789
       H   -17.08645  -13.41505    9.17302
       O   -17.49347  -12.54335    9.29222
      H1   -16.89916  -12.08866    9.94709
       H   -19.16252  -17.03271    9.84461
       O   -19.08741  -16.11547    9.57152
      H1   -19.96048  -15.73219    9.72848
       H   -14.46734  -16.84980    7.90745
       O   -15.21706  -16.33701    7.51350
      H1   -15.46680  -15.65275    8.12644
       H    -9.51397  -15.49117    8.91288
       O    -8.70427  -15.73708    8.44584
      H1    -8.01692  -15.60511    9.13436
       H   -17.92820  -17.48027    5.31902
       O   -17.40360  -16.73765    4.95812
      H1   -16.59630  -16.70625    5.54989
       H   -12.80176  -12.84428    8.20967
       O   -12.12147  -13.18557    7.65319
      H1   -12.51894  -13.88544    7.09855
       H   -18.33856  -16.19716   13.33475
       O   -19.19172  -16.49644   13.80036
      H1   -18.97118  -17.34531   14.20838
       H   -14.77748  -10.61150    6.58357
       O   -14.17718  -11.36296    6.75527
      H1   -13.27432  -11.08176    6.83662
       H   -13.77999  -14.51719    5.19185
       O   -13.34571  -15.23522    5.65199
      H1   -14.05572  -15.63199    6.09947
       H   -10.83726  -17.93084   10.38023
       O   -11.58159  -17.32670   10.34913
      H1   -12.08933  -17.49139    9.56266
       H   -15.71757  -16.64852   11.66689
       O   -14.77928  -16.78327   11.66549
      H1   -14.54154  -17.76024   11.73461

