90
frame 1 | Written by MDAnalysis XYZWriter (release 2.4.3)
       H   -15.47329  -10.45788   12.55486
       O   -15.20254  -10.15777   13.43284
      H1   -15.03429   -9.23891   13.21879
       H    -8.18055  -11.83184   14.18905
       O    -7.65990  -11.00987   14.35685
      H1    -7.08165  -10.91214   13.60418
       H   -14.07904  -12.39371   16.53649
       O   -13.72941  -12.24672   15.70284
      H1   -13.93140  -13.09958   15.25237
       H   -11.22236   -5.24958   15.98530
       O   -10.99163   -4.60628   16.65222
      H1   -11.80032   -4.53762   17.21774
       H   -14.60947  -13.77935   18.61059
       O   -14.47263  -14.41447   17.92650
      H1   -13.60262  -14.24188   17.51999
       H    -7.89131   -8.82318   13.55082
       O    -8.37452   -8.04977   13.81467
      H1    -8.97914   -8.49866   14.38993
       H   -16.77930  -11.79272   16.21301
       O   -16.85431  -11.49272   15.29365
      H1   -15.97250  -11.44207   15.00632
       H    -7.16011   -7.90270   16.41963
       O    -7.53694   -6.97618   16.31440
      H1    -8.14851   -7.08531   15.48531
       H   -11.04802  -12.19276   12.20950
       O   -11.00379  -12.51861   11.29465
      H1   -11.85367  -12.89540   11.18229
       H    -9.24987   -8.45842   18.04024
       O   -10.18423   -8.84346   17.98636
      H1   -10.07740   -9.81043   18.22850
       H   -14.44790   -5.99214   11.14805
       O   -14.35238   -6.70752   10.52129
      H1   -14.02292   -6.31495    9.68612
       H   -14.28525   -5.65794   17.94290
       O   -13.38727   -5.69041   17.52867
      H1   -13.00342   -6.26727   18.20206
       H   -13.31419   -7.45639   12.22145
       O   -13.79971   -7.66588   13.06581
      H1   -13.30630   -7.18926   13.75319
       H   -15.10402   -8.88293   15.91968
       O   -14.21385   -8.70484   16.37371
      H1   -13.64645   -9.23049   15.73368
       H   -13.35290   -8.33908   17.95553
       O   -12.71148   -8.27745   18.68428
      H1   -11.93819   -8.63107   18.29159
       H    -8.01774  -15.75958   15.92528
       O    -8.47756  -15.02026   16.39450
      H1    -8.75998  -14.42314   15.69488
       H   -11.22217   -8.92341   14.90125
       O   -10.60065   -8.25206   15.21904
      H1   -10.45568   -8.66450   16.07969
       H   -11.34553  -15.46841   14.60641
       O   -11.34162  -14.47490   14.50023
      H1   -12.29498  -14.29253   14.49493
       H   -12.92011  -14.96575   11.28754
       O   -12.78712  -14.48475   10.45565
      H1   -13.71439  -14.52769   10.03555
       H   -11.34389  -14.21713   16.37500
       O   -11.57243  -14.09875   17.34275
      H1   -11.07040  -13.30956   17.62302
       H   -11.84662   -7.09379   15.30412
       O   -12.50646   -6.38506   15.02409
      H1   -13.19359   -6.31344   15.73627
       H   -13.26473   -9.80527   13.94360
       O   -12.46922  -10.30190   14.16441
      H1   -12.82011  -11.07254   14.67133
       H   -17.86286  -10.26393   14.44230
       O   -18.46703   -9.61027   14.22971
      H1   -17.83393   -8.86383   14.16513
       H   -14.31640  -15.44301   13.64219
       O   -14.15822  -14.69802   14.23249
      H1   -14.82825  -14.09826   13.92427
       H    -9.99237  -13.29510   13.93527
       O    -8.99437  -13.32446   13.95736
      H1    -8.80223  -13.75014   13.05930
       H   -10.11752  -14.14993   11.10929
       O    -9.50255  -14.91348   11.33336
      H1    -8.60282  -14.57603   11.17244
       H   -17.46483  -14.20778   13.25643
       O   -17.15588  -13.30962   13.10952
      H1   -17.28726  -12.74354   13.94435
       H   -12.05586  -10.45135    7.49025
       O   -12.13150   -9.49216    7.65029
      H1   -12.64081   -9.53194    8.42648
       H    -9.97567  -11.99967   18.65613
       O   -10.62947  -11.52985   18.13392
      H1   -11.42879  -11.64196   18.64470
       H   -16.61272   -6.55556   15.18079
       O   -16.63812   -7.21916   14.44711
      H1   -15.77506   -7.03058   14.03285

