90
frame 1 | Written by MDAnalysis XYZWriter (release 2.4.3)
       H     6.47399   13.08947   15.16967
       O     6.31113   12.25839   14.73551
      H1     7.19143   11.93916   14.46692
       H    10.35936   14.58320   13.58306
       O     9.64507   14.25895   12.96015
      H1     8.82221   14.74185   13.24492
       H    10.54058   11.03439   11.98060
       O     9.79660   10.61008   12.44532
      H1    10.12010    9.68974   12.49047
       H    12.69851   14.56424   17.86307
       O    13.58533   14.54567   18.12264
      H1    13.65374   15.46975   18.50718
       H     7.73728   11.18758   17.08346
       O     7.82684   11.51787   17.98918
      H1     7.34363   10.93647   18.57370
       H     2.81532   12.68160   12.69169
       O     3.42479   13.15610   13.26831
      H1     4.23193   12.61192   13.24794
       H    10.58730    7.50403   14.49755
       O    10.04998    7.81429   13.69526
      H1    10.70119    7.55645   13.02475
       H     9.57354   11.47240   14.04691
       O     9.18991   12.14155   14.65795
      H1     9.42807   12.97653   14.20834
       H    11.01200   15.49713   11.34651
       O    10.80735   16.47523   11.29757
      H1    10.28364   16.72723   12.10753
       H     8.61941   17.74746   13.55962
       O     9.56263   17.47791   13.70888
      H1     9.99091   18.31968   13.95293
       H    11.41698   14.48045   15.46268
       O    11.59844   15.02377   14.67003
      H1    11.35068   15.92358   14.98622
       H     7.33498    8.34832   12.65539
       O     7.40829    7.39767   12.57063
      H1     8.35092    7.35805   12.85382
       H     7.21837   15.56219   14.51055
       O     7.91912   15.38018   15.12400
      H1     8.38655   16.21105   14.99074
       H    10.10000   11.45778   16.13584
       O    10.69572   11.26542   16.80911
      H1    10.39997   10.47047   17.17547
       H     9.05592   13.54847    9.69981
       O     8.98670   14.53022    9.66092
      H1     8.12064   14.60737    9.22202
       H    13.63037   11.62041   15.80728
       O    13.15961   10.77189   15.71672
      H1    12.35414   11.07316   16.21275
       H     9.49735   12.03267    9.67760
       O     8.77351   11.89369    9.08854
      H1     7.98120   12.00770    9.61668
       H    10.45914   14.65764   17.41143
       O    11.11520   13.96962   17.14065
      H1    10.69568   13.09119   17.21589
       H     8.59941    8.35055   14.60002
       O     7.99448    8.72307   15.29913
      H1     7.15605    8.47620   14.94781
       H     4.75371   14.40532   16.40703
       O     5.01609   13.87432   17.22572
      H1     5.94651   14.03635   17.33605
       H     7.66622   11.26584   11.17763
       O     6.85509   11.73310   10.98363
      H1     6.39346   11.11785   10.44671
       H    12.83240   13.62843   13.50689
       O    13.08318   12.77735   13.10625
      H1    13.21679   12.25164   13.87333
       H     6.80537   14.69162   11.79761
       O     7.26597   15.57821   11.81937
      H1     7.93566   15.35780   11.17396
       H     5.26517    9.60462   12.89317
       O     6.01935    9.75393   13.42350
      H1     5.94055   10.74494   13.59820
       H    14.34120   13.75847   16.70785
       O    14.30228   13.26358   15.84728
      H1    15.22603   12.93317   15.78446
       H    13.37838   15.46669   13.79166
       O    14.30787   15.19259   13.60846
      H1    14.41726   14.40504   14.21231
       H     4.47598   14.84876   14.04562
       O     4.94845   15.23188   14.83001
      H1     4.63109   16.16268   14.66692
       H    11.60614   12.80360   10.30449
       O    11.10232   12.01970   10.44758
      H1    11.75087   11.34146   10.45701
       H     7.86308   14.51511   16.94440
       O     7.58650   14.55817   17.84654
      H1     7.81830   13.70801   18.20790
       H    10.41398    8.15708   18.32876
       O     9.95943    8.64337   17.64073
      H1     9.09477    8.21030   17.46232

