90
frame 1 | Written by MDAnalysis XYZWriter (release 2.4.3)
       H    -9.61424   11.84528  -10.30333
       O    -8.93889   11.14346  -10.16419
      H1    -8.33275   11.35185  -10.91449
       H   -11.53126    8.05552  -10.89564
       O   -11.15146    7.33382  -10.34583
      H1   -10.66359    7.95948   -9.81858
       H   -17.99235   11.53808   -8.44217
       O   -17.36423   12.02656   -8.97208
      H1   -17.32756   12.86125   -8.56492
       H   -12.50763    9.21737  -14.58664
       O   -13.37220    9.64186  -14.19255
      H1   -13.97883    8.96438  -14.58174
       H    -8.57906   13.27357  -14.16052
       O    -9.02489   12.44486  -14.23175
      H1    -9.94633   12.72122  -14.39011
       H   -16.22869   14.78078  -14.36115
       O   -16.15053   15.38763  -13.56761
      H1   -16.70578   14.93690  -12.93887
       H   -12.51960    9.87825  -12.42565
       O   -12.63949    9.71515  -11.46838
      H1   -12.90221   10.62497  -11.20625
       H   -14.76669   15.92033  -12.44623
       O   -13.99021   16.46559  -12.13961
      H1   -13.80554   17.06677  -12.85123
       H   -14.71729   10.67239   -8.45329
       O   -14.69275   11.46734   -7.96213
      H1   -15.55521   11.92896   -8.20736
       H   -11.87654    9.60114   -6.45411
       O   -11.72558    8.75942   -5.94362
      H1   -11.00288    9.00560   -5.36087
       H   -16.16948   12.05864  -15.01719
       O   -16.41087   11.37502  -14.35229
      H1   -15.92336   11.78492  -13.60145
       H   -10.56630   14.17617  -10.49478
       O   -10.81736   13.51257   -9.87021
      H1   -10.80667   13.93790   -9.00477
       H    -9.27044   15.98701  -11.83372
       O    -8.90707   15.21771  -11.33108
      H1    -8.39999   15.61302  -10.61351
       H   -13.01810   15.09487   -7.61448
       O   -12.68593   15.97338   -7.92293
      H1   -13.22038   16.61522   -7.48196
       H   -16.33744   15.12080   -8.72124
       O   -16.02309   14.37697   -8.21062
      H1   -15.92387   14.78261   -7.34113
       H   -12.79104    8.02106  -11.95573
       O   -13.04583    7.15616  -12.29138
      H1   -12.41620    6.84777  -12.95138
       H   -11.82472   16.27874  -14.15755
       O   -11.43373   15.56462  -13.61063
      H1   -11.95172   15.53626  -12.80979
       H   -12.86399   13.02738  -14.27615
       O   -12.04400   12.99352  -13.80323
      H1   -11.82629   13.93572  -13.70849
       H   -13.66855   11.38856  -15.42521
       O   -13.82140   12.21896  -15.85052
      H1   -12.97529   12.63660  -16.01766
       H   -12.54226   16.83440   -9.50996
       O   -12.13700   17.32516  -10.23654
      H1   -12.65596   17.00557  -10.99089
       H    -9.18647   13.82991   -6.68492
       O   -10.05017   14.22785   -6.95313
      H1    -9.83911   15.14908   -6.94621
       H   -10.68949    9.79782   -8.36782
       O    -9.99819    9.26407   -8.77948
      H1    -9.65719    9.88588   -9.44262
       H   -13.68916   12.28206   -9.39069
       O   -13.17448   12.23807  -10.24726
      H1   -12.50253   12.92964  -10.13521
       H   -14.50312   11.12164   -5.87528
       O   -14.57164   11.23480   -4.92985
      H1   -14.55326   10.24956   -4.73365
       H   -12.82085   13.78222   -5.59486
       O   -12.65328   13.59660   -6.49336
      H1   -11.74543   13.87740   -6.52408
       H   -18.85301   13.76625  -12.56366
       O   -18.06921   14.06928  -12.04843
      H1   -17.53173   13.25716  -12.16929
       H   -17.59808   10.11808  -11.45168
       O   -16.76680   10.32257  -10.96722
      H1   -17.12905   10.94485  -10.31566
       H   -15.90400   11.61784  -11.57419
       O   -15.76173   12.50375  -11.98672
      H1   -14.89640   12.77861  -11.66181
       H   -11.69359   11.89003   -7.05734
       O   -11.71620   11.01043   -7.50165
      H1   -11.99134   11.31810   -8.39717
       H   -15.49817    9.46315   -9.86682
       O   -14.86883    9.12925   -9.17806
      H1   -14.01496    8.90759   -9.66166

