90
frame 1 | Written by MDAnalysis XYZWriter (release 2.4.3)
       H     7.09585   -3.41320   -3.59645
       O     6.76422   -4.31320   -3.63755
      H1     6.07575   -4.24804   -4.36085
       H     7.37252   -8.37701   -1.86517
       O     8.03301   -8.27405   -1.16319
      H1     7.68743   -8.93645   -0.53264
       H     9.32363   -4.42913   -5.69678
       O     9.26631   -5.10378   -5.02721
      H1     8.54183   -4.75503   -4.47442
       H     4.54660   -2.93950   -9.23838
       O     4.07158   -3.51773   -8.60657
      H1     3.75947   -2.85823   -7.97112
       H     8.68098  -11.83854   -7.30422
       O     7.80244  -12.09608   -7.03515
      H1     7.39171  -11.27205   -7.31843
       H     1.91987   -5.16386   -4.84360
       O     2.58982   -4.47087   -4.71528
      H1     2.88010   -4.56828   -3.77616
       H     4.66493   -3.82002   -1.95547
       O     3.83923   -4.27748   -1.75581
      H1     4.11114   -5.21791   -1.65032
       H     3.95477  -12.86431   -8.53905
       O     3.08180  -12.65307   -8.10323
      H1     3.40422  -12.34277   -7.22390
       H     7.11223   -5.67401   -7.36790
       O     7.23265   -4.67751   -7.38003
      H1     8.23245   -4.66456   -7.53531
       H     7.57874   -1.76910   -5.28990
       O     7.39553   -1.88186   -6.23296
      H1     6.87008   -2.76062   -6.14776
       H     3.45362   -8.00666   -6.71158
       O     3.20204   -7.94961   -7.63293
      H1     3.82772   -8.64005   -7.93930
       H     4.38790   -4.58436   -5.56253
       O     5.09283   -3.99206   -5.67148
      H1     5.62166   -4.31598   -6.40776
       H     5.27513   -7.64336   -6.00814
       O     4.47778   -7.56900   -5.33351
      H1     4.58372   -8.42166   -4.83330
       H     1.46552   -8.04449   -3.57504
       O     1.70679   -7.45130   -4.29783
      H1     1.94645   -8.06674   -5.00640
       H     0.24928   -6.37935   -4.87441
       O    -0.32390   -5.89632   -5.49741
      H1    -0.32973   -5.04210   -5.10416
       H     5.56045   -6.81539   -3.87980
       O     5.89329   -7.29560   -3.09338
      H1     6.14186   -6.55273   -2.54844
       H    10.07088   -7.74568   -7.76551
       O    10.12208   -7.92338   -8.74786
      H1    10.38170   -7.04494   -9.08592
       H     1.61894   -8.43076   -8.07643
       O     0.73806   -8.84184   -8.18807
      H1     0.67165   -9.21055   -9.03742
       H     3.53787  -11.26657   -4.85191
       O     3.47923  -12.11742   -5.20004
      H1     2.77121  -12.52345   -4.64352
       H     9.15189   -9.44937   -4.29159
       O     8.65876   -9.43492   -5.15388
      H1     8.47237  -10.32951   -5.39429
       H    10.15753   -8.99417   -5.67881
       O    11.03708   -8.61779   -5.85365
      H1    11.10023   -7.86835   -5.26933
       H     7.18357   -5.11341  -10.45723
       O     6.94109   -4.21228  -10.11330
      H1     6.81409   -4.41169   -9.14316
       H     2.80036   -6.91189   -2.30641
       O     3.50066   -7.00212   -1.70327
      H1     4.25337   -6.95551   -2.31356
       H     4.43856   -6.84472   -8.12375
       O     5.02590   -6.15968   -8.50045
      H1     4.43607   -5.38737   -8.51335
       H     5.16649   -9.32218   -2.92750
       O     4.78369   -9.91312   -3.59484
      H1     4.23799  -10.59331   -3.18338
       H     5.02824   -6.97796   -9.89051
       O     5.16956   -7.63270  -10.59206
      H1     4.44927   -7.59002  -11.22886
       H     5.97931  -11.70423   -4.76129
       O     6.85750  -11.98878   -4.61925
      H1     7.23803  -12.02578   -5.50876
       H     4.64093   -9.52419   -9.59706
       O     4.61360  -10.03763   -8.75510
      H1     4.08009  -10.87650   -9.01199
       H     7.57312   -9.20556   -8.85876
       O     7.18396   -9.47010   -8.00286
      H1     6.32086   -9.79763   -8.34624
       H     7.38208   -8.20213   -6.91090
       O     7.19894   -7.47013   -6.27631
      H1     7.69318   -7.78911   -5.53416

