90
frame 1 | Written by MDAnalysis XYZWriter (release 2.4.3)
       H    15.18197   16.80868   -2.11448
       O    15.51569   17.67696   -2.11528
      H1    16.46716   17.46320   -1.97770
       H    12.57748   14.77045    2.23401
       O    12.00650   14.65467    2.97377
      H1    11.94409   15.52450    3.29295
       H    13.91372   17.30683   -3.82143
       O    12.99608   16.94301   -3.77249
      H1    12.70408   17.20763   -2.89000
       H    17.62501   17.02274   -6.43030
       O    17.03775   17.70527   -6.86498
      H1    17.68343   18.07306   -7.49025
       H    15.90914   11.04883   -0.72643
       O    16.70141   10.48815   -0.65953
      H1    16.95160   10.37515    0.30085
       H    15.56146   14.14628    1.67792
       O    16.41891   14.48066    1.92490
      H1    16.47466   14.13381    2.84321
       H    15.21982   17.91201    0.01087
       O    15.04233   18.52313    0.76800
      H1    15.56583   19.33881    0.49950
       H    13.50224   14.39557   -0.86097
       O    12.56973   14.40265   -0.59861
      H1    12.39910   13.47799   -0.48177
       H    11.96218   19.27424    0.71415
       O    12.45142   18.67747    1.26009
      H1    13.34853   18.90814    0.94282
       H    18.33832   18.56559   -0.68986
       O    18.55838   17.75279   -1.22280
      H1    18.77622   17.13658   -0.53174
       H    11.73921   14.70708   -7.97404
       O    12.05020   14.65819   -7.02395
      H1    11.79690   15.53530   -6.65570
       H    18.91521   15.07503    1.15563
       O    19.20609   15.98974    1.16844
      H1    18.43823   16.42460    1.58358
       H    13.50795   11.86086    2.13754
       O    14.31491   12.22397    1.77689
      H1    14.98299   11.56518    2.09427
       H     9.71575   14.74175    0.01985
       O     9.54900   15.46769    0.60476
      H1    10.44168   15.58255    0.97560
       H    14.07404   11.85127   -0.15808
       O    14.40640   11.71883   -1.02506
      H1    13.91815   10.93787   -1.34406
       H    19.75937   16.10524   -3.81926
       O    18.94692   16.64408   -3.77375
      H1    19.06953   16.98290   -2.86825
       H    11.73612   13.82359   -4.59709
       O    11.58148   12.87294   -4.37767
      H1    10.67721   12.61454   -4.52964
       H    16.05035   10.55975   -3.76634
       O    16.22890   11.52210   -3.47589
      H1    15.58274   11.63401   -2.75780
       H     8.52763   14.15342   -1.56520
       O     9.54360   14.14967   -1.66386
      H1     9.75766   14.57173   -2.52431
       H    18.58843   13.77701   -1.57220
       O    18.34932   14.57404   -1.10124
      H1    18.95511   14.45398   -0.38669
       H    16.66232   17.39526    3.64279
       O    16.32977   17.88326    4.43709
      H1    15.74639   17.26382    4.86631
       H    10.83655   16.52422   -5.51438
       O    11.30747   17.12864   -6.18818
      H1    11.93888   17.64005   -5.62255
       H    18.14418   15.65418   -4.85584
       O    17.75486   15.15030   -5.57727
      H1    16.95443   14.76245   -5.21399
       H    15.78958   13.18806   -4.47432
       O    15.51177   14.07389   -4.35275
      H1    14.87715   14.19922   -5.12496
       H    16.19482   14.89750   -1.08577
       O    15.27361   15.15483   -1.28333
      H1    15.22066   14.77495   -2.23366
       H    13.70208   14.24596   -7.33268
       O    14.61307   13.96883   -7.16707
      H1    15.06653   14.70922   -7.59486
       H    12.15112   16.00711   -0.80238
       O    11.73436   16.86781   -0.98194
      H1    11.79172   17.26715   -0.11835
       H    19.41967   18.02067   -4.96504
       O    19.84938   18.88670   -5.15588
      H1    19.01385   19.40344   -5.25708
       H     8.64025   16.60063   -1.84337
       O     9.32181   17.13976   -2.27155
      H1    10.12244   17.02872   -1.73233
       H    16.52222   16.26371    2.04930
       O    16.97716   17.13277    2.03251
      H1    16.28484   17.75353    1.66364

