90
frame 1 | Written by MDAnalysis XYZWriter (release 2.4.3)
       H    -7.49819    1.36143    8.14860
       O    -7.43742    1.44482    9.11451
      H1    -8.29077    1.86391    9.40137
       H   -10.98007   -2.86353   16.18008
       O   -11.28475   -1.96488   16.38501
      H1   -10.54792   -1.35498   16.40068
       H   -10.42577   -1.21185    8.12678
       O   -10.90515   -1.66865    7.38450
      H1   -10.17237   -2.11761    6.91371
       H    -6.72942   -5.47682   16.48427
       O    -6.37151   -4.67355   16.05802
      H1    -7.13174   -4.42404   15.53837
       H   -10.24427    4.40388   14.38683
       O   -10.33191    5.23850   13.91253
      H1   -10.87862    5.80293   14.49050
       H   -10.08735    2.22202   16.19625
       O   -10.57283    3.07511   15.99023
      H1   -10.61677    3.56029   16.83287
       H    -6.53341   -4.21641   12.64595
       O    -6.67323   -3.33138   12.22005
      H1    -6.21268   -3.27536   11.41133
       H   -14.41239   -0.46246    9.92546
       O   -13.92411   -1.30483    9.90038
      H1   -14.51184   -1.79414    9.29569
       H    -5.53932    3.56202   10.82718
       O    -5.32759    3.37844    9.90350
      H1    -6.06285    2.96245    9.47895
       H    -8.82261    2.40085   13.97435
       O    -8.01307    2.77989   13.57942
      H1    -7.40752    2.10905   14.00865
       H   -13.16365    1.24071    9.21968
       O   -13.14457    1.81712    8.48909
      H1   -12.67501    1.24901    7.82782
       H   -11.21670    1.48700   13.28472
       O   -10.74798    0.97246   13.91281
      H1   -10.40018    0.17165   13.44709
       H    -9.26366   -4.13818   13.52656
       O    -8.97274   -3.92217   14.41370
      H1    -9.72779   -4.09562   14.97500
       H    -6.39987   -2.88342   16.55390
       O    -6.08178   -2.01594   16.73237
      H1    -5.37985   -2.36425   17.36793
       H   -13.60603   -0.65689   14.72137
       O   -14.00769   -0.50215   15.58994
      H1   -13.53225    0.21246   15.98072
       H    -8.50531    2.87301   11.48269
       O    -9.12351    2.90282   10.75881
      H1    -9.99892    2.73467   11.17236
       H    -5.48308   -1.60214   13.75280
       O    -5.05271   -1.12272   14.50081
      H1    -5.40060   -1.51694   15.35699
       H    -8.41203    0.47309   15.79935
       O    -9.24613    0.11998   16.13302
      H1    -9.81014    0.52328   15.46188
       H    -5.04815   -1.30264    9.50949
       O    -5.92696   -0.99246    9.55740
      H1    -5.89848   -0.03843    9.51755
       H    -9.01711   -0.93843   10.38384
       O    -9.03493   -1.24495    9.48440
      H1    -8.18725   -0.88235    9.30951
       H    -8.21961   -2.59247    9.36673
       O    -7.61870   -3.36232    9.14016
      H1    -6.73683   -3.10141    9.35566
       H    -5.59250    0.95170   12.57436
       O    -6.12012    0.37354   12.00072
      H1    -6.11554    0.88874   11.17120
       H    -8.81795   -0.28061   17.88182
       O    -8.52151   -0.26644   18.80136
      H1    -7.83495   -0.97664   18.87629
       H   -12.30185   -2.66523   10.47127
       O   -12.32001   -3.33836   11.16433
      H1   -11.35561   -3.62210   11.13184
       H    -9.02172   -1.60593   12.63585
       O    -9.03676   -0.68555   12.46256
      H1    -8.10304   -0.39223   12.44804
       H   -13.95690    0.91625   11.85457
       O   -14.03439    1.42994   11.09457
      H1   -14.90680    1.79085   11.13528
       H   -12.45282    2.29235   11.40021
       O   -11.65890    2.65646   11.82481
      H1   -11.99274    3.46372   12.20679
       H    -6.32147    1.23009   16.04045
       O    -6.83837    1.10449   15.18474
      H1    -6.48133    0.24138   14.99088
       H   -13.24718   -1.63681   12.50543
       O   -13.56863   -0.99740   13.15206
      H1   -14.42792   -0.80633   12.77483
       H    -8.28837   -3.60654   11.77520
       O    -9.19415   -3.97974   11.71273
      H1    -8.90425   -4.59306   11.01775

