90
frame 1 | Written by MDAnalysis XYZWriter (release 2.4.3)
       H     6.52964   -0.47473    1.81546
       O     7.42361   -0.04234    1.79557
      H1     7.77088   -0.65101    2.49985
       H    15.82552    0.19733    3.52947
       O    16.28126   -0.68083    3.40264
      H1    15.64889   -1.16132    2.85787
       H    15.40963   -0.01251   -2.75532
       O    14.79489   -0.19158   -2.05373
      H1    14.09413    0.37704   -2.37877
       H    12.42397   -4.56417   -0.35651
       O    12.07978   -4.16849    0.44186
      H1    11.52781   -3.43750    0.19252
       H    13.74357   -3.04098    3.00651
       O    13.45634   -2.52755    2.22404
      H1    13.13895   -3.20210    1.63416
       H     9.52789   -1.64260    6.27538
       O     9.81391   -1.07915    6.99535
      H1     9.08889   -0.49088    7.06456
       H     8.46310   -4.96306    2.80661
       O     7.75700   -4.91666    3.51077
      H1     8.10967   -5.61477    4.06395
       H    15.57583   -0.53223   -0.64455
       O    16.04444   -0.57579    0.18567
      H1    16.68227    0.21823    0.08008
       H    14.64338    0.94266    0.69742
       O    13.95999    1.45178    1.14302
      H1    14.13532    2.35606    0.76655
       H    12.27530    4.51839    4.92428
       O    12.71314    4.10436    4.13459
      H1    12.83843    3.17286    4.48298
       H    12.07026    1.78645    0.22430
       O    11.29446    2.06537   -0.21077
      H1    10.68308    2.24707    0.52860
       H    10.73021   -1.39560    0.92325
       O    10.53133   -1.22516    1.88143
      H1    11.23636   -0.61429    2.10777
       H    10.02856   -4.47241   -1.98786
       O     9.93300   -3.51023   -2.15303
      H1    10.69650   -3.27649   -2.69938
       H     9.95840    2.48020    3.09164
       O     9.63115    2.14745    2.16848
      H1     8.79142    1.83080    2.46268
       H    11.34546   -0.27574    7.62628
       O    12.15799    0.23117    7.61337
      H1    11.97521    0.99876    8.13024
       H    11.69966   -0.00654   -1.05465
       O    11.47701   -0.90796   -0.71757
      H1    11.83032   -1.40422   -1.45497
       H     7.90863   -1.53869   -0.20395
       O     7.84351   -2.49034   -0.09903
      H1     8.76855   -2.74474   -0.32660
       H    13.23164   -2.18164   -2.94425
       O    12.30230   -2.00513   -3.17347
      H1    12.31387   -1.14103   -3.62561
       H    11.69504    4.41902    2.13147
       O    11.67996    5.27241    1.65907
      H1    12.63882    5.45653    1.76936
       H     9.40898    3.48619    5.65838
       O    10.09759    2.76480    5.55277
      H1    10.48858    2.70826    6.45361
       H    10.51454   -4.83086    1.61630
       O     9.82824   -5.47387    1.62992
      H1     9.89629   -5.91370    0.76847
       H    11.48370   -1.87096    3.61773
       O    11.36882   -2.10310    4.57592
      H1    11.62900   -1.27140    5.04087
       H     8.46850   -2.20917    4.37289
       O     8.44765   -1.37790    3.90582
      H1     9.18725   -1.47241    3.32269
       H     7.98784    0.27816    0.40420
       O     8.27516    0.46415   -0.54077
      H1     9.15005    0.93135   -0.37264
       H    12.66975    1.23374    6.17065
       O    12.78444    1.53515    5.22472
      H1    12.08470    0.89470    4.88333
       H    13.35690    0.44729    2.45125
       O    12.77063   -0.13733    2.91533
      H1    13.09025   -1.02996    2.67661
       H    10.42699   -6.23273    3.95195
       O    10.33308   -5.60578    4.66290
      H1    10.57121   -4.74900    4.18680
       H    14.64945    1.64305    5.22098
       O    15.47113    1.61077    4.77335
      H1    16.10472    1.66433    5.52654
       H     8.25889    0.87757    5.59609
       O     7.63542    0.23463    6.02974
      H1     7.69298   -0.57469    5.55877
       H    14.96413   -2.69749    5.60978
       O    14.34482   -3.46400    5.48380
      H1    14.48296   -3.98094    6.32728

