90
frame 1 | Written by MDAnalysis XYZWriter (release 2.4.3)
       H    14.14440    4.31179   -8.78126
       O    14.78583    5.09545   -8.99637
      H1    15.59407    4.50613   -8.98997
       H    12.97630    2.99414   -6.33591
       O    13.05149    2.20974   -5.78725
      H1    12.83761    1.58972   -6.48716
       H    12.40069    6.52607   -5.62793
       O    11.92226    7.35047   -5.38041
      H1    12.46275    7.69508   -4.68330
       H    11.16513    8.53671  -13.01376
       O    10.42864    7.95532  -12.90367
      H1    10.86835    7.22259  -13.37333
       H    17.49931    7.21074   -8.35343
       O    17.28777    6.53928   -9.03141
      H1    16.34869    6.43884   -9.01793
       H    10.07801    5.10868   -7.46395
       O    10.66373    4.39444   -7.12129
      H1    10.03316    3.70324   -6.92349
       H    17.78151    2.04314  -11.52799
       O    16.89369    2.26162  -11.10861
      H1    17.11230    2.68002  -10.28187
       H    14.39558    8.16554  -14.43426
       O    13.90766    8.98818  -14.43173
      H1    14.46132    9.62915  -14.98403
       H    10.19796    0.98375  -10.94111
       O    10.67138    1.60922  -11.49841
      H1    10.90230    2.32599  -10.85433
       H    14.75848    4.88933  -13.96236
       O    14.38645    5.80184  -13.98967
      H1    13.41332    5.74081  -14.14269
       H    16.61685    5.15921  -12.75716
       O    17.37846    5.68290  -12.42116
      H1    17.96699    5.49298  -13.18342
       H    11.42600    5.86283  -14.89977
       O    11.67042    5.89187  -13.97842
      H1    11.35783    5.05448  -13.59871
       H    15.12307    4.45407   -5.77953
       O    14.39899    5.09810   -5.76428
      H1    14.60419    5.47094   -6.61684
       H    11.56858    8.04264   -7.04545
       O    11.37699    8.43573   -7.89827
      H1    10.72232    7.87512   -8.31753
       H     7.86103    6.09237  -11.28780
       O     8.87348    6.06421  -11.37260
      H1     9.07346    6.87739  -11.87000
       H    12.41945    1.36370  -11.70086
       O    13.29616    1.31282  -12.06632
      H1    13.73543    0.59955  -11.56971
       H    12.93443    6.16909  -11.97400
       O    12.76690    5.53633  -11.27243
      H1    13.62248    5.48212  -10.74435
       H     8.77010    7.00810   -8.23921
       O     9.37826    6.40776   -8.65456
      H1     9.01557    6.52296   -9.57190
       H    16.54915    6.48747  -16.10448
       O    15.63055    6.73711  -16.31584
      H1    15.18210    6.25670  -15.63420
       H    18.65416    4.87732  -11.55575
       O    19.23393    4.49664  -10.84865
      H1    18.49899    4.32579  -10.16005
       H     9.60020    4.40794  -12.17633
       O     9.98176    3.86130  -12.90723
      H1    10.23213    2.97713  -12.52462
       H    13.25916    0.59422  -13.68839
       O    12.82480    0.03253  -14.32023
      H1    13.59196   -0.29656  -14.88480
       H    15.81002    8.79826  -12.76233
       O    16.41002    8.26877  -13.28128
      H1    16.74616    7.55015  -12.73882
       H    10.19193    4.82910   -9.72773
       O    10.75983    4.13133  -10.12298
      H1    11.44481    4.69899  -10.49930
       H    13.46140   10.60304   -9.08829
       O    13.78026    9.87416   -8.53625
      H1    12.97733    9.29898   -8.41965
       H    11.99571    3.64972   -8.66685
       O    12.82473    3.19588   -8.42307
      H1    12.88606    2.38587   -8.97957
       H    14.02953    9.55014  -12.87481
       O    14.63312    9.76776  -12.10033
      H1    13.97662    9.99443  -11.42521
       H    17.64396    4.62893   -8.24826
       O    17.34607    3.70952   -8.60221
      H1    17.57503    3.23335   -7.79548
       H    15.26254    0.95967  -12.64895
       O    15.83692    0.37372  -13.22330
      H1    16.51784    0.17347  -12.53147
       H    16.78428    3.21550  -13.86626
       O    16.00663    3.52176  -13.45759
      H1    16.15379    3.32930  -12.52542

