90
frame 0 | Written by MDAnalysis XYZWriter (release 2.4.3)
       H    -6.73879  -14.09605    7.93444
       O    -5.89348  -14.11921    7.43030
      H1    -5.31656  -13.56098    7.98273
       H    -0.78229  -13.19368    1.62709
       O    -1.60802  -13.63623    1.64013
      H1    -2.02972  -13.21021    2.42595
       H    -0.89529   -7.78644    9.63518
       O    -0.46734   -8.54396   10.02819
      H1     0.10046   -8.94619    9.30448
       H     1.94125  -14.49016    6.78356
       O     1.51955  -13.66589    7.07585
      H1     0.99854  -13.36477    6.25914
       H    -2.70481  -11.63134    6.08900
       O    -2.72839  -10.78770    5.59883
      H1    -1.79886  -10.62217    5.70648
       H    -0.50013  -15.72176    8.44783
       O    -0.19015  -15.59215    7.55356
      H1     0.59364  -15.00378    7.63939
       H    -5.61197  -13.68909    0.82145
       O    -5.10053  -12.92127    0.59745
      H1    -4.68594  -12.72377    1.44798
       H    -7.72888  -10.78795    2.85846
       O    -6.75654  -10.98304    2.92725
      H1    -6.66747  -11.24833    3.84407
       H    -3.34736   -8.19166    4.99368
       O    -3.63228   -7.69504    4.18937
      H1    -3.05152   -6.95098    4.16498
       H     1.65384  -12.38126    2.15888
       O     0.67531  -12.35171    1.97166
      H1     0.42694  -11.49897    1.48496
       H    -2.52980  -10.53926    2.51578
       O    -1.91556   -9.83829    2.78562
      H1    -2.49558   -9.01291    2.84672
       H    -0.90735   -7.73032    7.13927
       O    -1.75068   -7.46613    7.49635
      H1    -1.97103   -6.56015    7.17829
       H     1.57580   -8.07594    6.86680
       O     0.82135   -7.58815    6.41063
      H1     1.08027   -7.64706    5.45279
       H    -7.09287   -8.61678    6.91349
       O    -7.39920   -7.71179    6.67990
      H1    -8.26212   -7.66745    7.10782
       H    -5.22447   -9.72238    7.38438
       O    -6.05486  -10.24765    7.41041
      H1    -6.45219  -10.07573    8.30016
       H    -3.27157  -11.55430   11.60508
       O    -3.31668  -11.82737   10.69385
      H1    -3.15288  -11.04536   10.21681
       H    -3.12410  -10.48842    7.62172
       O    -3.06642   -9.78299    8.26673
      H1    -2.60715   -9.06850    7.69773
       H     0.10440  -10.57610    7.59305
       O    -0.37207  -10.13043    6.88584
      H1     0.31070   -9.54003    6.60022
       H    -2.40808  -12.85958    8.11279
       O    -3.09049  -12.92235    7.40132
      H1    -2.88771  -13.80933    6.99633
       H    -1.35592  -13.73181    9.83640
       O    -1.38970  -12.82086    9.48556
      H1    -2.16939  -12.44680    9.96272
       H    -4.18933  -16.50004    6.54752
       O    -4.66840  -17.28892    6.14661
      H1    -5.60231  -17.14296    6.32639
       H    -0.35798  -14.19449    4.49593
       O     0.26386  -13.45836    4.52797
      H1     0.24378  -12.88634    3.69868
       H    -1.92009  -15.57739    6.69873
       O    -2.79101  -15.32392    6.35190
      H1    -2.56312  -15.42200    5.37342
       H    -0.51212   -8.45096    3.31660
       O     0.07764   -7.72173    3.47088
      H1     0.17955   -7.41782    2.59304
       H    -5.88471  -11.36857    6.14444
       O    -6.13151  -12.10283    5.53936
      H1    -6.13850  -12.71414    6.33022
       H     0.00895  -12.07037    8.95113
       O     0.74804  -11.48502    8.79703
      H1     1.26126  -11.95821    8.16067
       H    -3.09297  -11.89030    4.21531
       O    -3.57119  -12.52227    3.62965
      H1    -4.38346  -12.77220    4.10566
       H    -3.98506   -8.55658    9.24009
       O    -4.34686   -7.63128    9.34213
      H1    -3.81098   -7.30634   10.09404
       H    -2.48717  -16.35340    3.81247
       O    -1.67103  -15.81850    3.91776
      H1    -1.42637  -15.49574    3.04014
       H    -5.18676  -11.56472   10.53711
       O    -6.12128  -11.78283   10.34214
      H1    -6.59318  -11.21723   10.98503

