90
frame 1 | Written by MDAnalysis XYZWriter (release 2.4.3)
       H   -12.69587   -8.69956   -1.78806
       O   -12.43216   -9.30505   -2.52100
      H1   -11.48194   -9.26536   -2.45427
       H    -6.52870   -9.23927   -5.47094
       O    -6.90753   -9.47909   -4.62409
      H1    -7.29691   -8.63779   -4.35914
       H   -10.49041   -3.81031   -4.65480
       O   -11.10123   -4.57116   -4.66013
      H1   -10.49371   -5.19012   -4.15269
       H   -11.39349   -8.56040  -11.66827
       O   -11.60474   -9.26809  -12.28163
      H1   -12.46867   -9.49039  -11.95145
       H   -10.35342   -8.22974   -9.44704
       O   -10.90103   -7.57162   -9.02905
      H1   -11.17919   -6.99012   -9.77879
       H    -8.34466  -10.97142   -2.11887
       O    -8.46868  -11.83429   -1.71189
      H1    -7.68361  -11.90058   -1.18922
       H   -12.75671  -12.46270   -8.93167
       O   -12.99182  -13.39583   -9.20693
      H1   -12.28593  -13.94264   -8.81470
       H    -9.92565   -6.83599   -8.06001
       O    -9.30704   -6.46442   -7.34743
      H1    -9.74335   -6.80240   -6.52919
       H    -9.23723   -9.65039   -8.45029
       O    -9.74987   -9.92036   -7.67925
      H1    -9.17426  -10.69083   -7.42304
       H   -13.32553   -6.74332   -4.57049
       O   -13.23044   -7.63756   -4.93219
      H1   -13.49937   -8.23879   -4.24702
       H    -7.58391  -12.65415   -4.73288
       O    -6.87636  -12.12129   -5.08934
      H1    -7.16082  -11.20208   -4.90306
       H    -8.49947  -14.24247   -7.34098
       O    -9.26480  -14.44471   -6.81244
      H1    -9.66912  -13.60827   -6.59356
       H   -15.58152  -10.73426   -9.76828
       O   -15.97078  -10.01078   -9.24561
      H1   -15.13426   -9.72351   -8.83289
       H   -12.81463  -10.93699   -7.46332
       O   -12.21602  -10.97582   -8.25596
      H1   -11.37091  -10.53367   -8.08078
       H    -6.85142  -11.10919   -8.22190
       O    -7.61420  -11.46244   -7.73289
      H1    -7.12570  -11.72366   -6.95008
       H    -9.47913   -8.53980   -2.45696
       O    -9.31175   -9.39687   -2.92215
      H1    -9.61012   -9.27977   -3.84738
       H   -11.15725  -12.86087   -5.51299
       O   -10.48708  -12.29917   -5.92512
      H1   -11.02118  -11.87034   -6.58018
       H   -11.49425   -7.81302   -5.36386
       O   -10.58157   -8.07762   -5.36442
      H1   -10.45148   -8.61200   -6.15241
       H    -7.21711   -4.94817   -9.01079
       O    -6.91439   -5.08133   -8.10141
      H1    -7.70647   -5.45562   -7.73073
       H   -10.97352   -6.66063   -2.50295
       O   -10.06754   -6.47322   -2.75697
      H1    -9.66873   -6.48002   -1.81406
       H   -11.63780  -12.78561   -1.12656
       O   -11.55560  -12.21376   -1.88696
      H1   -10.62703  -11.93229   -1.86425
       H    -8.79604   -9.89546  -10.87094
       O    -8.90674   -8.99387  -10.54824
      H1    -7.92253   -8.69160  -10.63367
       H   -14.16838   -4.80433   -4.98563
       O   -13.80743   -5.06135   -4.12848
      H1   -12.91741   -4.78294   -4.19683
       H   -13.71817   -7.60825   -6.74691
       O   -13.81809   -8.16311   -7.56173
      H1   -12.87135   -8.34551   -7.74399
       H   -13.08417   -6.40351   -2.38837
       O   -12.57050   -6.59886   -1.62245
      H1   -12.75192   -5.87745   -0.97475
       H   -14.83909  -10.52598   -6.44021
       O   -14.09293  -10.84439   -5.97580
      H1   -14.14754  -10.16465   -5.24835
       H    -8.37896   -3.30125   -4.88705
       O    -8.08212   -4.14815   -5.29060
      H1    -8.79508   -4.38719   -5.87721
       H    -8.25410   -6.51513   -3.81910
       O    -7.39859   -6.50733   -4.30662
      H1    -7.35932   -5.61754   -4.71149
       H   -14.20096   -6.17169   -9.86961
       O   -13.88156   -5.69355   -9.06094
      H1   -14.09642   -6.42931   -8.45168
       H   -15.50857   -9.96407   -3.51882
       O   -15.42629   -9.19665   -4.06581
      H1   -15.92550   -9.38621   -4.82527

