90
frame 1 | Written by MDAnalysis XYZWriter (release 2.4.3)
       H    -2.19839    4.30313    4.29800
       O    -2.31666    5.22365    3.94601
      H1    -2.93823    5.63556    4.47999
       H     0.34395    5.50941    5.92371
       O     0.79122    4.64263    5.99891
      H1     1.27173    4.60096    5.17954
       H    -0.08085    1.44067    6.59867
       O     0.15263    0.83142    7.31502
      H1     0.49075    1.52428    7.97072
       H     4.69435    4.33958   10.39335
       O     4.78112    4.65288    9.47378
      H1     4.17397    4.09937    8.90742
       H    -1.46310    4.70579    9.08300
       O    -1.49267    4.29998    8.19575
      H1    -2.37243    4.59187    7.93846
       H    -0.03724    3.41440    8.52855
       O     0.63204    2.87826    9.03970
      H1     1.16874    3.58302    9.44607
       H     3.71427    2.54284    6.97678
       O     3.36791    3.37919    7.28018
      H1     2.49652    3.35132    6.85725
       H     1.41824    0.23504    4.00941
       O     2.01526    0.84587    4.44544
      H1     2.83675    0.66509    3.93165
       H     0.91945    5.49039   10.93086
       O     1.75219    4.98577   10.70418
      H1     2.00730    4.57564   11.51218
       H     6.39506    6.21832    1.85414
       O     6.26365    6.02147    2.76159
      H1     5.61898    5.34715    2.66271
       H    -1.27878    6.32285    0.30460
       O    -1.63975    6.22870   -0.58602
      H1    -1.87108    7.16454   -0.71592
       H    -1.55782    7.60683   10.29313
       O    -0.65404    7.36657   10.65418
      H1    -0.02808    7.46665    9.92066
       H    -1.29588    9.28858    1.31765
       O    -0.80957    9.60669    2.08815
      H1    -0.62491    8.75099    2.49922
       H     3.68000    3.83811    3.11297
       O     4.55933    3.63559    2.76950
      H1     4.39310    3.13850    1.99133
       H    -1.86835    3.14782    6.04473
       O    -1.36809    2.87000    5.28724
      H1    -0.56321    3.39979    5.51271
       H     4.79260    1.03680    5.24052
       O     5.17391    1.21918    6.07642
      H1     6.10820    0.94912    5.93273
       H     1.90445    2.24435    3.63536
       O     1.63671    3.18136    3.40539
      H1     1.55534    3.06824    2.41499
       H     2.53994    7.35469    1.59889
       O     1.96354    6.59846    1.71475
      H1     2.21928    6.15983    2.56211
       H     0.22682    6.26239    2.00861
       O    -0.70957    6.48090    1.96209
      H1    -1.04873    6.03102    2.72843
       H     2.96559    4.76143   -0.75149
       O     2.17771    5.37572   -0.88186
      H1     2.17102    5.75657    0.02149
       H     4.51535    5.69489    5.10674
       O     3.88629    6.31566    4.64252
      H1     3.54395    6.88224    5.34764
       H     1.38643    3.78764   -0.02712
       O     1.46053    2.98280    0.44914
      H1     0.95274    2.37445   -0.03860
       H    -1.97962    1.71585    4.10855
       O    -2.48977    0.96204    3.75363
      H1    -3.42891    1.37472    3.88191
       H     5.81024    9.20098    4.51340
       O     5.42727    8.95278    3.64850
      H1     5.11023    8.02727    3.72088
       H    -0.12924    7.43371    6.46797
       O    -0.90930    7.32242    7.04398
      H1    -1.53690    7.86718    6.58764
       H     1.29588   -0.45613    6.65452
       O     1.63006   -1.34414    6.40022
      H1     2.50520   -1.11512    6.12822
       H     5.37237    7.85140    8.32511
       O     4.50094    7.46557    8.10488
      H1     4.56755    6.45012    8.05319
       H     2.71051    7.63602    6.95011
       O     2.15902    7.57057    6.12414
      H1     2.22758    8.44438    5.78426
       H     4.82798    4.41319    7.03211
       O     5.30592    5.10360    6.58212
      H1     6.22155    4.75814    6.65829
       H    -2.26929    2.81915    9.27077
       O    -2.75451    2.25584    9.87502
      H1    -3.66699    2.57326    9.81584

