90
frame 1 | Written by MDAnalysis XYZWriter (release 2.4.3)
       H    -2.08339    0.30751  -13.76316
       O    -1.78295   -0.19542  -12.98367
      H1    -2.58808   -0.06488  -12.40380
       H    -2.26060   -3.40530  -13.67061
       O    -2.57066   -2.58535  -14.13136
      H1    -2.22224   -1.88933  -13.52383
       H    -8.20960    0.77699   -9.31420
       O    -8.40178   -0.13009   -9.65062
      H1    -8.69764   -0.55523   -8.85238
       H    -6.14377   -1.92871  -10.43092
       O    -6.95785   -1.96608  -10.91282
      H1    -7.50701   -1.18939  -10.63753
       H    -2.59275    3.44743  -12.42915
       O    -3.33351    3.86900  -12.95683
      H1    -4.12378    3.56809  -12.50782
       H    -4.90631    1.42085  -14.78435
       O    -5.85723    1.35651  -14.74381
      H1    -6.16472    1.50638  -15.63542
       H    -5.41739   -2.01032  -15.03338
       O    -5.24185   -1.30301  -15.67614
      H1    -5.25981   -0.51158  -15.15426
       H    -9.10253   -4.07664  -10.67417
       O    -8.18058   -4.36082  -10.43652
      H1    -7.67139   -3.49500  -10.51127
       H    -1.35895    4.16593  -10.73234
       O    -1.53601    3.23610  -10.91238
      H1    -1.92311    2.92672  -10.05169
       H    -0.33348    0.94077  -12.45750
       O     0.24600    1.70621  -12.16913
      H1    -0.45630    2.32398  -11.74057
       H    -9.78688    0.82081  -10.33553
       O   -10.51973    1.16952  -10.90404
      H1   -11.39618    0.83935  -10.62274
       H    -8.37273   -2.82209  -13.78283
       O    -7.76478   -2.03608  -13.51806
      H1    -7.23994   -2.30330  -12.75678
       H    -7.27519    4.24608  -13.42194
       O    -6.76439    5.07720  -13.50443
      H1    -7.33850    5.67484  -12.97044
       H    -3.26850    2.26163  -15.64269
       O    -3.14881    1.70952  -14.83165
      H1    -3.16522    2.46307  -14.24684
       H    -2.64422   -0.82086   -6.49047
       O    -1.80730   -1.14304   -6.80496
      H1    -1.44370   -0.43191   -7.29938
       H    -3.79446    2.13534   -6.82953
       O    -4.49086    1.90211   -6.17290
      H1    -5.07346    1.26414   -6.62164
       H     0.08831    1.32226   -8.61799
       O    -0.55717    0.66688   -8.29978
      H1    -0.16198   -0.02610   -8.93518
       H    -5.53595    3.51192   -7.22371
       O    -6.01010    3.88874   -7.95252
      H1    -5.31053    4.08680   -8.59921
       H    -4.15000   -1.04081  -12.04564
       O    -3.87600   -0.46075  -11.37048
      H1    -4.42529    0.31083  -11.32279
       H    -8.48784    2.77775  -13.07718
       O    -7.54085    2.66530  -12.77384
      H1    -7.12061    2.19796  -13.55348
       H    -5.27793    5.46982  -10.10761
       O    -4.48227    4.93382  -10.16271
      H1    -4.01121    5.34173  -10.92962
       H    -9.12764   -0.80549  -13.39832
       O    -9.66349   -0.01618  -13.40187
      H1    -9.74872    0.20516  -12.44628
       H    -7.29810    2.80145   -8.42862
       O    -8.05579    2.28074   -8.72965
      H1    -8.63398    2.99053   -9.01088
       H    -7.95503    0.09711  -15.22268
       O    -7.79622   -0.51620  -15.97549
      H1    -6.95308   -0.90698  -15.73059
       H    -2.79046    3.54435   -7.73870
       O    -2.79434    2.61438   -8.08006
      H1    -1.90940    2.26337   -7.87220
       H    -4.33329   -2.83665  -13.80517
       O    -4.99236   -2.64651  -13.12398
      H1    -5.56690   -3.43042  -13.18402
       H    -3.98859   -1.88533  -10.08596
       O    -4.50736   -2.72809   -9.85401
      H1    -3.83234   -3.28574   -9.50078
       H    -4.78773    3.04696  -10.78846
       O    -4.99333    2.26399  -11.34644
      H1    -5.91828    2.39520  -11.41058
       H    -6.20125   -0.68712   -6.55676
       O    -6.37729    0.19914   -6.27518
      H1    -6.45931   -0.04094   -5.29097
       H    -4.95063   -2.42599   -8.10110
       O    -5.34908   -2.23012   -7.23612
      H1    -6.05468   -2.91231   -7.22963

