90
frame 4 | Written by MDAnalysis XYZWriter (release 2.4.3)
       H    -4.82839   18.45829    4.61695
       O    -5.66307   18.00377    4.39339
      H1    -5.61706   17.88639    3.41596
       H    -7.65885   16.20138    6.24443
       O    -8.15681   15.60703    5.60633
      H1    -7.52772   15.26883    5.01560
       H    -6.56383   17.73564   11.44049
       O    -7.23488   17.13399   11.73848
      H1    -6.77965   16.26361   11.61960
       H   -10.54633   16.96109   10.65985
       O    -9.74057   17.31053   10.24001
      H1    -9.10593   17.17250   10.97795
       H    -6.39738   12.27322    7.46783
       O    -5.91084   12.93655    7.96531
      H1    -6.45065   13.73342    7.90176
       H    -2.82790   20.10580    2.77662
       O    -1.97866   19.65929    2.80412
      H1    -1.99207   18.93181    3.40767
       H    -8.96381   17.85475    4.78355
       O    -8.40160   18.61546    5.14971
      H1    -7.61272   18.56512    4.66748
       H    -1.66447   16.07566    9.05574
       O    -1.49723   16.73096    8.41442
      H1    -1.17600   16.13158    7.69483
       H    -6.46996   14.79667   12.78397
       O    -5.81337   14.81999   12.11336
      H1    -5.81266   14.00493   11.55029
       H   -10.03955   16.10458    4.88966
       O   -10.91880   16.50951    4.86623
      H1   -11.14465   16.88784    5.72758
       H    -0.62063   13.12034    8.52429
       O    -0.19902   13.98691    8.77862
      H1     0.04799   14.38573    7.91395
       H    -6.47839   19.41667    7.60653
       O    -6.24744   18.60261    7.21454
      H1    -6.91848   18.35941    6.58753
       H    -3.95658   18.96238   13.85577
       O    -4.86156   18.62473   13.84921
      H1    -4.91432   18.14527   13.01391
       H   -10.65893   15.81452    7.79573
       O    -9.99048   15.08283    7.92208
      H1    -9.47105   14.99722    7.15970
       H     0.28155   18.52378   10.35225
       O     0.59332   17.74878    9.86523
      H1    -0.21804   17.27174    9.66275
       H    -0.72799   15.19229    5.94408
       O     0.00251   15.60899    6.40946
      H1     0.86515   15.12833    6.16737
       H    -2.25870   16.83493   11.46054
       O    -1.83040   17.69495   11.60045
      H1    -2.17407   18.29529   10.87874
       H    -5.13035   19.60707   10.69736
       O    -5.49478   18.75126   10.34522
      H1    -4.92296   18.28677    9.76349
       H    -3.91484   15.37385   11.16261
       O    -3.21889   15.45031   10.45069
      H1    -3.77576   15.71870    9.68000
       H     0.31565   18.35616    8.14861
       O     0.20478   18.66758    7.24653
      H1    -0.20925   17.95613    6.76808
       H    -8.39429   18.36297   12.92208
       O    -8.89474   19.04904   13.32162
      H1    -9.80114   18.73680   13.58904
       H    -9.49268   18.43295    8.89257
       O    -9.74417   18.90084    8.01633
      H1    -8.89844   19.38375    7.78250
       H    -0.60331   17.41338    5.09278
       O    -1.49398   17.67917    5.26485
      H1    -2.04468   16.82649    5.14612
       H    -5.48317   12.85446    9.65240
       O    -5.38821   12.64927   10.56732
      H1    -5.69047   11.71018   10.55639
       H    -3.45142   17.15823    8.11662
       O    -4.40504   17.11082    8.39729
      H1    -4.83310   17.93903    8.04384
       H    -7.30169   16.15121    9.55907
       O    -7.34345   15.36379    9.04608
      H1    -8.28067   15.32918    8.75366
       H    -5.41781   16.52233    5.36084
       O    -5.28723   15.74539    5.91766
      H1    -5.14007   16.17494    6.77088
       H    -2.28690   16.31191   14.16448
       O    -1.44642   16.02939   13.84470
      H1    -1.30300   16.64358   13.16882
       H    -3.74619   15.48527    5.29498
       O    -2.77332   15.32495    5.14133
      H1    -2.57977   15.00614    4.29455
       H    -4.57543   12.57744    5.91861
       O    -4.49611   11.79277    5.41919
      H1    -5.34444   11.34443    5.60510

