90
frame 2 | Written by MDAnalysis XYZWriter (release 2.4.3)
       H   -11.80881  -18.73786   -8.80830
       O   -11.98691  -18.84185   -9.74191
      H1   -11.95010  -19.85640   -9.80722
       H   -12.48923  -15.06866  -13.53864
       O   -11.97247  -15.37571  -14.34657
      H1   -12.34579  -16.30598  -14.40029
       H    -8.21402  -11.64093  -13.63476
       O    -8.03045  -12.36411  -14.29449
      H1    -7.82797  -11.91531  -15.12704
       H   -12.62069  -12.44833   -9.16465
       O   -13.21394  -13.14437   -9.37319
      H1   -12.55944  -13.90329   -9.22929
       H   -13.06001  -18.90520  -17.74309
       O   -13.84181  -18.31148  -17.53753
      H1   -13.59530  -17.62456  -18.12404
       H   -10.56413  -17.52286   -9.67742
       O    -9.91321  -16.89495  -10.05043
      H1   -10.28092  -16.10025   -9.61162
       H   -10.59986  -11.38033  -17.07347
       O   -10.52923  -10.49030  -17.48966
      H1    -9.60539  -10.52070  -17.80926
       H   -14.14126  -17.92456  -13.66342
       O   -13.20052  -17.92425  -13.70046
      H1   -13.05113  -17.62905  -12.74781
       H    -9.11220  -16.04432  -17.31500
       O    -8.54150  -15.54873  -16.72132
      H1    -8.92582  -14.69454  -16.71478
       H   -15.90219  -12.81222  -13.70549
       O   -15.85940  -13.22356  -12.84520
      H1   -15.11071  -13.84954  -12.96092
       H   -16.54454  -13.20747  -15.87203
       O   -15.56444  -13.38422  -15.78063
      H1   -15.73105  -14.40975  -15.69400
       H   -14.22055  -12.35161  -16.13611
       O   -13.46026  -11.85437  -16.49404
      H1   -13.04944  -11.45739  -15.70478
       H   -10.51655  -12.00562  -12.62940
       O   -10.41826  -11.30673  -13.32964
      H1   -10.74053  -10.49738  -12.83395
       H   -14.94232  -11.67030  -12.29151
       O   -14.30131  -10.98599  -11.96554
      H1   -14.73449  -10.20765  -12.35309
       H    -9.53978  -12.74557  -15.27601
       O    -9.96155  -13.00854  -16.11177
      H1   -10.78570  -13.41739  -15.84847
       H   -13.45462  -15.25203  -17.99417
       O   -13.91917  -15.63575  -18.80863
      H1   -14.60502  -14.94901  -18.90980
       H    -7.11560  -14.94781  -12.98687
       O    -7.89433  -15.15596  -12.42489
      H1    -8.37079  -15.73159  -13.04844
       H   -13.45209  -13.83040  -11.26137
       O   -13.35421  -14.53125  -11.99267
      H1   -13.34729  -15.34480  -11.51549
       H   -15.79645  -17.24020  -14.52692
       O   -15.97685  -17.65701  -13.59491
      H1   -16.15797  -18.60116  -13.87047
       H   -10.88648  -19.36826  -15.66623
       O    -9.97675  -19.13724  -15.33832
      H1   -10.12190  -18.26145  -15.04172
       H    -9.41369  -12.67851  -11.05164
       O   -10.00387  -13.37056  -11.36350
      H1    -9.35259  -13.96478  -11.72121
       H   -17.10821  -14.35664  -12.06717
       O   -17.65261  -14.97832  -11.52414
      H1   -17.67772  -14.40526  -10.69318
       H   -14.40987  -16.99971  -10.78236
       O   -13.54724  -17.05017  -11.17786
      H1   -13.08782  -17.79149  -10.75709
       H   -13.00716  -13.54697  -16.87686
       O   -12.61029  -14.47563  -16.84057
      H1   -12.89434  -14.82909  -15.94451
       H    -8.80659  -17.78347  -12.65343
       O    -8.66747  -18.51056  -12.03238
      H1    -8.84894  -17.97070  -11.25384
       H   -15.89205  -18.00943  -10.11885
       O   -15.93324  -17.01708  -10.11656
      H1   -16.65746  -16.69229  -10.66838
       H   -10.67525  -16.67861  -19.33933
       O   -10.02833  -16.88682  -18.60536
      H1    -9.64246  -17.70891  -18.87217
       H   -16.37503  -16.40008  -16.41273
       O   -15.62524  -16.12358  -15.88500
      H1   -14.99296  -16.25991  -16.58482
       H    -9.79460  -14.49784   -8.19573
       O   -10.46919  -14.41825   -8.86583
      H1   -10.00550  -14.01165   -9.61180
       H    -9.16660  -16.12903  -15.15967
       O    -9.34610  -16.56612  -14.28115
      H1   -10.09027  -16.01226  -14.08175

