90
frame 2 | Written by MDAnalysis XYZWriter (release 2.4.3)
       H   -18.71949   -8.24922  -14.08446
       O   -18.42382   -7.48770  -13.52101
      H1   -17.74719   -7.01448  -14.00358
       H   -17.19128   -3.75196  -14.90789
       O   -16.41908   -3.86499  -15.51116
      H1   -16.75366   -3.69753  -16.37922
       H   -11.59015   -2.07310  -16.50538
       O   -12.18992   -1.34461  -16.58961
      H1   -12.89133   -1.59808  -15.90376
       H   -19.15159   -2.42522  -14.41217
       O   -18.48758   -2.90683  -13.90142
      H1   -17.77154   -2.28746  -13.58735
       H   -11.21998   -5.96153  -12.28395
       O   -11.80069   -5.66581  -11.54337
      H1   -12.58504   -6.15104  -11.75042
       H   -15.24786   -2.96562  -19.02111
       O   -15.92559   -3.64900  -18.87218
      H1   -15.32635   -4.48107  -18.85207
       H   -16.67792   -1.12088  -12.19077
       O   -16.23194   -1.38117  -12.98475
      H1   -16.60926   -0.71640  -13.56154
       H   -16.77206   -7.71647   -9.54332
       O   -16.48060   -8.06701  -10.39835
      H1   -16.03535   -8.90744  -10.06962
       H   -17.80897   -7.06146  -18.24904
       O   -17.74909   -6.55679  -17.43298
      H1   -17.24272   -7.15763  -16.83379
       H   -18.81639   -3.07933  -11.74926
       O   -18.46304   -3.32236  -10.88908
      H1   -18.30738   -4.26101  -10.95786
       H   -12.56840   -1.91913  -13.43906
       O   -12.63663   -0.97668  -13.45549
      H1   -11.69069   -0.69785  -13.56723
       H   -16.12766   -9.18144  -12.75787
       O   -15.35498   -8.74509  -13.05786
      H1   -15.02798   -8.33920  -12.25130
       H   -14.94232  -11.67030  -12.29151
       O   -14.30131  -10.98599  -11.96554
      H1   -14.73449  -10.20765  -12.35309
       H   -12.75031   -9.26437  -13.77668
       O   -12.45229   -9.05069  -14.65700
      H1   -11.51354   -9.24230  -14.60463
       H   -17.00385   -9.36059  -19.50286
       O   -17.13695   -8.40297  -19.64884
      H1   -16.29763   -8.05261  -19.38652
       H   -15.52257   -2.99001  -13.25696
       O   -15.42852   -3.91726  -12.99333
      H1   -14.89985   -4.36586  -13.68912
       H   -14.34734   -9.16106  -17.62158
       O   -14.48707   -9.95561  -18.11601
      H1   -14.08496  -10.66269  -17.58947
       H   -18.26417   -4.21655  -18.17242
       O   -18.54098   -3.37900  -17.70507
      H1   -19.09992   -3.74574  -17.01418
       H   -17.95041  -11.37383  -12.34893
       O   -17.53588  -10.53744  -12.37662
      H1   -18.20527   -9.96064  -11.94646
       H   -16.38861   -8.73205  -16.08221
       O   -17.02955   -9.41801  -16.31067
      H1   -16.57076   -9.87056  -17.04587
       H   -12.98673   -4.06710  -12.85176
       O   -12.52082   -3.56569  -13.51536
      H1   -12.49979   -4.22906  -14.23463
       H   -15.43336   -6.31447  -15.18496
       O   -16.05631   -7.10120  -15.15466
      H1   -15.64407   -7.58490  -14.44631
       H   -15.79613   -6.58976  -17.98882
       O   -15.37393   -6.62669  -18.83348
      H1   -14.41174   -6.90705  -18.66243
       H   -13.63504   -4.74976  -15.77662
       O   -13.92711   -5.35662  -15.06355
      H1   -13.51385   -6.19417  -15.44805
       H   -14.16693   -5.56084   -9.76094
       O   -13.58177   -5.45737   -8.97303
      H1   -13.34294   -6.39639   -8.70731
       H   -12.73146   -5.06936  -17.90233
       O   -12.56854   -4.42845  -17.22824
      H1   -12.78749   -3.63821  -17.76145
       H   -15.67314   -6.56255  -11.00667
       O   -14.88159   -6.09045  -11.32683
      H1   -15.26575   -5.42774  -11.87742
       H   -15.31394   -2.47832  -15.67452
       O   -14.77721   -1.65949  -15.73074
      H1   -14.85443   -1.22074  -14.88854
       H   -12.64981   -7.89483  -16.24355
       O   -12.92577   -7.28694  -16.96471
      H1   -12.04313   -7.10784  -17.22367
       H   -19.89603   -5.65464  -11.58169
       O   -19.22973   -6.10957  -11.00254
      H1   -18.88403   -6.82872  -11.49513

