90
frame 1 | Written by MDAnalysis XYZWriter (release 2.4.3)
       H     6.47399   13.08947   15.16967
       O     6.31113   12.25839   14.73551
      H1     7.19143   11.93916   14.46692
       H     7.45598    2.32309   14.57276
       O     8.15404    2.70945   14.02030
      H1     7.76272    2.70645   13.13801
       H    10.54058   11.03439   11.98060
       O     9.79660   10.61008   12.44532
      H1    10.12010    9.68974   12.49047
       H    14.53312    6.78975   11.93812
       O    14.59933    5.96698   11.48168
      H1    13.83177    5.52905   11.83622
       H     6.76502    4.01478   11.10166
       O     7.55979    3.74511   11.52735
      H1     7.70907    2.86398   11.15439
       H     7.73728   11.18758   17.08346
       O     7.82684   11.51787   17.98918
      H1     7.34363   10.93647   18.57370
       H    10.58730    7.50403   14.49755
       O    10.04998    7.81429   13.69526
      H1    10.70119    7.55645   13.02475
       H    13.87135    8.34810   17.75912
       O    14.40011    8.80589   17.15387
      H1    13.79497    9.36386   16.69472
       H    15.86731    7.52421   15.79749
       O    15.74618    7.80016   14.86313
      H1    16.41647    7.10693   14.49146
       H     9.57354   11.47240   14.04691
       O     9.18991   12.14155   14.65795
      H1     9.42807   12.97653   14.20834
       H    13.85027    6.97517   16.19796
       O    13.94742    6.05612   16.49673
      H1    13.28709    5.99921   17.16995
       H    13.28848   10.16258    9.67787
       O    12.77981    9.79358   10.47300
      H1    12.12770    9.23628   10.02045
       H     7.33498    8.34832   12.65539
       O     7.40829    7.39767   12.57063
      H1     8.35092    7.35805   12.85382
       H     9.52259    4.75753   11.44701
       O    10.49821    4.59147   11.48131
      H1    10.55575    3.63426   11.29591
       H    12.47798    6.95855    9.58898
       O    13.11895    6.38358    9.10640
      H1    13.80847    6.06911    9.71754
       H    14.32992    8.26805   13.58529
       O    13.65273    7.86834   13.04534
      H1    13.33920    8.55663   12.47744
       H    10.10000   11.45778   16.13584
       O    10.69572   11.26542   16.80911
      H1    10.39997   10.47047   17.17547
       H    13.63037   11.62041   15.80728
       O    13.15961   10.77189   15.71672
      H1    12.35414   11.07316   16.21275
       H     8.59941    8.35055   14.60002
       O     7.99448    8.72307   15.29913
      H1     7.15605    8.47620   14.94781
       H    10.05019    4.14755   15.15355
       O    10.38911    4.98791   15.44119
      H1     9.54848    5.41735   15.57061
       H    11.33650    5.24210   18.64615
       O    11.58611    4.62315   17.98628
      H1    11.20182    4.97246   17.18502
       H    14.11619    4.37963   13.59103
       O    14.61485    3.68205   14.14891
      H1    13.93711    3.49624   14.82585
       H    10.77394    6.22772   11.06126
       O    11.13889    7.14298   10.94373
      H1    10.36758    7.54255   10.48555
       H    12.83240   13.62843   13.50689
       O    13.08318   12.77735   13.10625
      H1    13.21679   12.25164   13.87333
       H     8.38082    7.55128    9.30986
       O     8.57933    8.02967   10.13417
      H1     8.05435    7.55920   10.84506
       H     6.51614    4.75856   14.35518
       O     5.87072    5.44362   14.20834
      H1     6.29590    6.00882   13.51435
       H     5.26517    9.60462   12.89317
       O     6.01935    9.75393   13.42350
      H1     5.94055   10.74494   13.59820
       H     7.10910    7.05812   16.93832
       O     7.83863    6.63033   17.43721
      H1     7.39186    5.75894   17.60360
       H    11.60614   12.80360   10.30449
       O    11.10232   12.01970   10.44758
      H1    11.75087   11.34146   10.45701
       H    10.41398    8.15708   18.32876
       O     9.95943    8.64337   17.64073
      H1     9.09477    8.21030   17.46232

