90
frame 1 | Written by MDAnalysis XYZWriter (release 2.4.3)
       H    10.35936   14.58320   13.58306
       O     9.64507   14.25895   12.96015
      H1     8.82221   14.74185   13.24492
       H    12.69851   14.56424   17.86307
       O    13.58533   14.54567   18.12264
      H1    13.65374   15.46975   18.50718
       H     2.99843   17.84866   15.07620
       O     3.97535   17.79058   15.12132
      H1     4.16828   18.67522   14.73155
       H     9.72945   17.48969   17.54253
       O    10.08898   16.76095   18.11505
      H1    11.07164   16.81272   17.95078
       H    10.62771   19.92177   15.10385
       O    11.48631   19.50150   15.06030
      H1    11.48647   18.88900   15.86577
       H     9.57354   11.47240   14.04691
       O     9.18991   12.14155   14.65795
      H1     9.42807   12.97653   14.20834
       H    11.01200   15.49713   11.34651
       O    10.80735   16.47523   11.29757
      H1    10.28364   16.72723   12.10753
       H     8.61941   17.74746   13.55962
       O     9.56263   17.47791   13.70888
      H1     9.99091   18.31968   13.95293
       H    11.41698   14.48045   15.46268
       O    11.59844   15.02377   14.67003
      H1    11.35068   15.92358   14.98622
       H     7.21837   15.56219   14.51055
       O     7.91912   15.38018   15.12400
      H1     8.38655   16.21105   14.99074
       H    13.65548   17.47121   18.67214
       O    14.14769   17.06651   19.43362
      H1    15.10848   17.09179   19.27145
       H     9.05592   13.54847    9.69981
       O     8.98670   14.53022    9.66092
      H1     8.12064   14.60737    9.22202
       H    16.33286   17.16978   12.01754
       O    15.67280   17.85346   11.92227
      H1    15.22293   17.69291   12.76497
       H    14.26143   14.24805   10.09870
       O    14.31220   15.22857   10.24356
      H1    13.96233   15.25099   11.13663
       H     6.88888   18.60992   14.19670
       O     6.98085   17.89418   13.57644
      H1     7.03850   18.49370   12.77715
       H     9.60071   18.51336    9.60127
       O     8.95430   18.29925   10.25074
      H1     9.37328   17.65661   10.80899
       H     8.07491   19.34968   17.92181
       O     8.74723   19.16024   17.18346
      H1     9.23875   20.01236   17.19978
       H     5.68057   17.47637   10.05485
       O     6.12832   17.67089    9.22624
      H1     7.10202   17.77719    9.53220
       H    10.45914   14.65764   17.41143
       O    11.11520   13.96962   17.14065
      H1    10.69568   13.09119   17.21589
       H     5.97156   19.25195   18.65059
       O     6.84901   19.22854   19.03482
      H1     7.11444   18.32376   19.20589
       H    12.23957   18.86268   17.60396
       O    12.52659   18.00772   17.27501
      H1    13.37682   18.23900   16.88654
       H    15.82058   18.46625   16.59557
       O    14.93364   18.69952   16.26864
      H1    15.20071   19.30499   15.58579
       H    14.01756   17.10324    9.88336
       O    13.49280   17.92118    9.77479
      H1    13.02829   17.76557   10.66677
       H    12.83240   13.62843   13.50689
       O    13.08318   12.77735   13.10625
      H1    13.21679   12.25164   13.87333
       H    10.67403   18.49828    7.19265
       O    11.53712   18.64941    7.61907
      H1    11.49435   19.28297    8.40448
       H     6.80537   14.69162   11.79761
       O     7.26597   15.57821   11.81937
      H1     7.93566   15.35780   11.17396
       H     4.16389   16.39334   11.17134
       O     4.72124   17.13436   11.45429
      H1     5.32340   16.67421   12.04997
       H    13.37838   15.46669   13.79166
       O    14.30787   15.19259   13.60846
      H1    14.41726   14.40504   14.21231
       H     4.47598   14.84876   14.04562
       O     4.94845   15.23188   14.83001
      H1     4.63109   16.16268   14.66692
       H     7.86308   14.51511   16.94440
       O     7.58650   14.55817   17.84654
      H1     7.81830   13.70801   18.20790

