90
frame 2 | Written by MDAnalysis XYZWriter (release 2.4.3)
       H     8.15650    9.93685    3.07987
       O     7.87090   10.30209    3.94126
      H1     8.65425   10.69022    4.37800
       H    15.06220    4.96091    3.68724
       O    14.61563    5.49817    4.35715
      H1    13.96369    4.90500    4.73552
       H    11.73850    2.31592    9.27737
       O    12.23280    3.05299    8.81922
      H1    13.10294    3.07048    9.28371
       H    10.06797    9.13756    7.63561
       O    10.59448    8.50668    8.20555
      H1    10.15095    8.53588    9.07682
       H     5.09312    4.64825   10.02388
       O     4.94451    5.28265    9.24519
      H1     4.69234    4.61975    8.60121
       H     9.98585   -0.89579    5.82972
       O     9.68066   -0.68232    6.72557
      H1     8.89688   -0.16303    6.51176
       H     6.10824    6.20924    1.76627
       O     5.98322    5.84700    2.69492
      H1     5.38114    5.07700    2.46350
       H     9.38050    4.52029    0.71950
       O     9.40392    5.40690    0.31140
      H1    10.35977    5.46244    0.35820
       H    11.97497    4.85492    5.36772
       O    12.18420    4.31083    4.63200
      H1    12.53058    3.48957    5.01526
       H     9.39857    5.72019    7.95503
       O    10.03209    4.99843    7.79326
      H1    10.73794    5.29485    8.32077
       H     6.90680    7.61812   -0.01700
       O     6.80235    6.65077    0.02904
      H1     7.68660    6.30250    0.19691
       H     7.69881    7.79909    3.77786
       O     8.25646    6.97904    3.85622
      H1     7.71248    6.30992    3.31059
       H     3.66792    3.66200    3.45803
       O     4.54992    3.27261    3.29896
      H1     4.97455    3.56641    4.09093
       H     9.06420    3.03329    2.34162
       O     8.57796    2.97455    1.54138
      H1     7.71394    2.60974    1.88285
       H     4.94267    0.81381    5.42204
       O     4.87115    0.79129    6.40075
      H1     5.80284    0.95057    6.54946
       H    10.81365    6.44533    2.37514
       O    10.68217    7.28613    2.72860
      H1     9.73552    7.26238    2.94643
       H    11.07736    0.48245    7.01037
       O    11.97942    0.92137    6.78500
      H1    12.04622    1.71460    7.31615
       H     3.69939    6.15004    4.87704
       O     3.04001    6.56827    4.31164
      H1     2.32268    6.72230    4.98296
       H     6.10415   10.59105    6.50441
       O     5.62567    9.80204    6.48931
      H1     6.26746    9.08742    6.30119
       H    11.60584    4.18039    2.54515
       O    11.68369    4.51257    1.63969
      H1    12.31538    5.24743    1.61543
       H     5.29276    8.05485    7.65636
       O     4.38210    7.79460    7.93168
      H1     4.51755    6.94589    8.39263
       H    11.78394    6.78588    6.54371
       O    12.20086    6.81691    5.65593
      H1    11.47392    6.98324    5.00065
       H     9.19112    3.56375    4.62631
       O     9.91555    3.24553    3.96337
      H1    10.63531    3.86312    4.25687
       H     7.71034    7.47930    9.77870
       O     8.17710    8.22580   10.20717
      H1     8.03915    8.02356   11.15456
       H     7.47057    7.13671    5.66761
       O     6.65209    7.32034    6.15643
      H1     5.98497    6.69120    5.83649
       H     4.89485    4.04685    6.28385
       O     5.40078    4.60018    5.65650
      H1     6.31019    4.41895    5.80799
       H     7.11985    6.65734    7.60607
       O     7.38244    6.33932    8.50207
      H1     6.52900    5.90159    8.72026
       H     8.79267    3.99117    6.44640
       O     8.23876    4.29259    5.75991
      H1     8.51613    5.11347    5.46610
       H     9.83942   10.94960    6.54532
       O     9.19268   10.36100    6.90125
      H1     8.71592   10.93507    7.55234
       H     7.60700    2.34377    6.73073
       O     7.58517    1.54784    6.19617
      H1     7.67348    1.82245    5.25144

