90
frame 1 | Written by MDAnalysis XYZWriter (release 2.4.3)
       H     7.52853    0.12865  -19.83469
       O     6.89281    0.03496  -19.10553
      H1     6.80615    0.99007  -18.76758
       H     4.68315    0.80507  -13.31982
       O     4.04883    0.49255  -12.63595
      H1     3.77901    1.35979  -12.19806
       H     9.82167   -2.37052  -13.61783
       O     8.91788   -2.27430  -13.32636
      H1     8.46268   -1.78426  -14.04222
       H     6.37378    2.41898  -13.92956
       O     6.26945    1.46236  -14.01713
      H1     6.50373    1.14160  -13.14454
       H     7.55079    0.05332  -15.03598
       O     8.30695   -0.08849  -15.62256
      H1     9.03801    0.40884  -15.16295
       H     1.39876    1.48417  -13.68441
       O     1.76288    1.58490  -14.60958
      H1     2.14776    2.44426  -14.51135
       H     4.02935   -1.86381  -19.12780
       O     3.17743   -1.67109  -19.57429
      H1     2.88482   -2.54161  -19.83811
       H     3.24932    1.98883  -20.19744
       O     2.64994    1.90547  -19.46404
      H1     3.13107    1.25502  -18.91824
       H     4.07336   -4.59408  -14.86965
       O     4.21194   -5.43747  -15.23590
      H1     5.17680   -5.49639  -15.26415
       H     8.13242    3.32042  -16.17369
       O     8.45394    4.22803  -16.20275
      H1     8.06673    4.58516  -17.01252
       H     2.60853   -0.23796  -17.34864
       O     3.19698    0.36996  -16.91083
      H1     2.53872    0.78923  -16.25917
       H    -0.89666   -2.11700  -16.48620
       O    -1.22195   -3.00110  -16.52647
      H1    -1.67658   -3.09155  -15.65687
       H     2.42580   -2.16622  -11.48508
       O     3.25878   -1.98056  -11.97023
      H1     3.17091   -1.03071  -12.08928
       H     7.44197    4.03750  -14.52502
       O     7.09726    3.88640  -13.61826
      H1     7.91884    3.52042  -13.21728
       H     5.91675   -2.71160  -10.63306
       O     5.42576   -1.88881  -10.47181
      H1     4.62674   -2.09172  -11.04630
       H     1.13874    4.68328  -17.09283
       O     1.71404    4.53838  -16.32104
      H1     2.24650    5.34376  -16.28971
       H     9.20500   -4.60158  -15.76738
       O     8.71882   -4.02930  -16.46858
      H1     7.89987   -4.60378  -16.64758
       H     4.97406    5.36880  -16.63469
       O     4.83548    4.44183  -16.91165
      H1     4.03428    4.16341  -16.55285
       H     1.25573   -5.59976  -18.83815
       O     2.11079   -5.27875  -18.50844
      H1     2.28341   -4.60722  -19.21181
       H     3.95448   -2.69539  -13.58026
       O     4.32785   -2.89030  -14.41753
      H1     4.69349   -2.05129  -14.77934
       H     6.40366    1.87175  -16.84865
       O     7.16643    2.08334  -17.40336
      H1     7.70859    1.29221  -17.23754
       H     6.55933    1.82976  -10.99447
       O     6.78909    1.07673  -11.56429
      H1     6.14282    0.35816  -11.33434
       H     5.90542   -1.37090  -18.65891
       O     5.59112   -2.19960  -18.20219
      H1     6.23277   -2.90554  -18.50974
       H     6.62632   -3.99157  -14.11839
       O     7.22204   -4.52513  -13.57225
      H1     7.92867   -3.83050  -13.48711
       H     0.06842    2.20366  -15.52450
       O    -0.41777    2.45146  -16.36553
      H1    -1.26938    1.94019  -16.25275
       H     4.73583   -0.34194  -16.46283
       O     5.45378   -0.76038  -15.89479
      H1     5.82861   -1.35196  -16.57123
       H     0.40365    0.44679  -16.54957
       O     0.22259   -0.50077  -16.72414
      H1    -0.32887   -0.31906  -17.53776
       H     9.19810   -1.03026  -16.77752
       O     9.52662   -1.71696  -17.42696
      H1     9.06779   -2.55996  -17.26906
       H     1.21122   -4.79737  -16.87233
       O     0.75648   -4.77847  -16.03036
      H1     0.04612   -4.11471  -16.16869
       H     1.25155   -3.16561  -14.91612
       O     0.83656   -2.37831  -14.50503
      H1     0.76314   -1.74022  -15.30064

