90
frame 2 | Written by MDAnalysis XYZWriter (release 2.4.3)
       H    -4.71220   18.54332    2.80327
       O    -4.35687   17.77937    3.21033
      H1    -3.51447   17.92313    2.72149
       H   -12.41175   18.49508   -3.27644
       O   -12.20570   17.54081   -3.31294
      H1   -12.20112   17.32794   -2.37866
       H    -6.66193   17.73987   -0.97668
       O    -6.61851   18.62006   -0.60171
      H1    -5.85116   19.00802   -1.10973
       H    -7.08614   16.51200    1.25441
       O    -6.26587   16.31907    1.70415
      H1    -6.26564   17.08432    2.26592
       H   -12.98175   18.60357    3.18201
       O   -12.59545   18.11727    2.43212
      H1   -11.74067   18.66018    2.36573
       H    -7.91830   16.02846   -1.76833
       O    -7.09856   16.40050   -2.19411
      H1    -7.32161   16.71714   -3.09663
       H    -7.47314   13.91207    2.85738
       O    -7.78073   12.97446    2.79591
      H1    -7.21936   12.59777    3.47099
       H    -5.86731   15.09126   -2.48405
       O    -5.16152   14.48445   -2.84720
      H1    -4.89254   14.08231   -1.96864
       H    -9.22585   16.68213    7.93516
       O    -8.65130   16.21821    7.28970
      H1    -7.99306   15.78681    7.87234
       H   -13.85715   18.10629    1.12880
       O   -14.42991   18.23908    0.34166
      H1   -14.34571   19.19366    0.29359
       H   -10.97360   16.90352   -6.31421
       O   -10.13688   17.28302   -5.97703
      H1   -10.15039   16.90752   -5.10013
       H   -15.41793   16.34334   -3.47754
       O   -14.58248   16.02948   -3.07663
      H1   -13.98594   16.68720   -3.42888
       H    -9.26677   19.89704   -1.27026
       O    -9.34911   19.17202   -0.69080
      H1    -8.39275   18.88236   -0.56017
       H    -7.98565   17.72750    6.62880
       O    -7.31070   18.29619    6.19252
      H1    -7.60760   19.08939    6.62495
       H   -12.46122   14.91735    2.94265
       O   -12.76741   15.51022    3.69852
      H1   -12.80910   16.34688    3.20070
       H   -10.52163   15.01301   -3.63135
       O   -10.07543   15.87517   -3.70033
      H1   -10.89729   16.39279   -3.53917
       H    -5.02689   14.13224    4.28348
       O    -5.79180   14.72746    4.27783
      H1    -5.81954   15.21535    3.41675
       H   -14.89469   17.62968    5.95604
       O   -14.01475   17.72127    5.65173
      H1   -13.94115   16.76836    5.37157
       H   -14.84931   16.56301   -0.19644
       O   -14.95531   15.59495   -0.34261
      H1   -14.92980   15.52755   -1.34444
       H    -9.83619   15.63792    5.52592
       O   -10.04113   15.73578    4.57743
      H1   -11.02137   15.53693    4.48271
       H   -11.12966   14.04304   -1.04877
       O   -10.94359   14.39120   -0.17903
      H1   -11.23274   15.30887   -0.29152
       H    -9.90822   19.50260    0.99907
       O   -10.17412   19.47339    1.96184
      H1    -9.46237   18.91891    2.42395
       H    -4.73655   16.07655    0.66929
       O    -3.86923   15.67666    0.46915
      H1    -4.24976   14.85727    0.12946
       H    -7.86362   18.18036    4.57783
       O    -8.55088   18.13142    3.83539
      H1    -8.91849   17.23770    3.93990
       H   -17.84651   17.47762    1.03453
       O   -17.22050   18.19393    1.11611
      H1   -16.43234   17.68342    1.37092
       H    -9.30955   15.00669   -0.15282
       O    -8.37255   15.24115   -0.16230
      H1    -7.82639   14.57525    0.19742
       H   -13.67037   14.61209    0.61917
       O   -13.14930   14.07753    1.27409
      H1   -12.33531   14.08609    0.75856
       H   -12.60330   18.35251    6.73430
       O   -12.02096   18.97292    7.20148
      H1   -12.66387   19.65071    7.38776
       H   -13.05810   17.08691   -0.60869
       O   -12.17263   16.77771   -0.76206
      H1   -11.74239   17.57626   -0.46037
       H    -9.94883   18.84464   -5.81612
       O    -9.84567   19.80609   -5.55792
      H1    -8.93263   19.93373   -5.64865

