90
frame 1 | Written by MDAnalysis XYZWriter (release 2.4.3)
       H    -2.34833   -4.60142   -0.36260
       O    -2.13285   -5.43169    0.09870
      H1    -3.00022   -5.63879    0.55192
       H    -0.63380   -0.26769   -0.68254
       O    -1.33471   -0.56532   -0.11754
      H1    -1.84192    0.29255    0.20006
       H    -4.23573   -7.03637    4.65822
       O    -5.04886   -6.54937    4.33251
      H1    -5.16786   -5.84803    5.03162
       H    -3.09534   -7.37286   -3.47267
       O    -3.16809   -6.52611   -3.93589
      H1    -3.76692   -6.01340   -3.44927
       H     1.31626   -5.23587   -1.29846
       O     1.05458   -5.46200   -2.25182
      H1     0.20444   -5.92197   -2.04843
       H    -6.23242   -6.14925   -2.99033
       O    -5.84177   -6.35965   -2.13304
      H1    -5.35117   -5.55622   -1.84719
       H    -2.61797   -7.72115    5.96663
       O    -2.71630   -7.90130    5.04345
      H1    -2.13911   -7.23860    4.59539
       H    -0.32157   -7.09785    3.83472
       O    -0.77264   -6.26221    3.95483
      H1    -0.18819   -5.80444    4.66636
       H    -1.61474   -9.85120    3.79683
       O    -1.38361   -9.33197    3.04649
      H1    -2.14824   -8.76739    2.93106
       H    -3.28013   -3.35214    2.12753
       O    -3.89177   -3.43321    1.34106
      H1    -4.56865   -2.83530    1.61571
       H    -4.25980   -4.93289    1.68043
       O    -4.56028   -5.87946    1.55218
      H1    -4.62041   -6.21915    2.48117
       H    -1.92530   -6.36447   -2.89774
       O    -1.24250   -6.56678   -2.26218
      H1    -1.68362   -6.36798   -1.47762
       H    -6.34782   -2.38922    0.33266
       O    -6.44347   -1.86847    1.11670
      H1    -6.03878   -1.00843    0.88427
       H     0.24928   -6.37935   -4.87441
       O    -0.32390   -5.89632   -5.49741
      H1    -0.32973   -5.04210   -5.10416
       H    -2.39987   -0.82356    4.82991
       O    -2.29013   -1.69420    5.25183
      H1    -2.49935   -2.34386    4.60627
       H    -0.30479   -1.61194    0.96202
       O     0.35033   -2.29537    1.29528
      H1     0.39535   -2.12165    2.25827
       H    -6.26428   -5.35740    0.66089
       O    -7.14489   -4.98592    0.61810
      H1    -7.63113   -5.26587    1.44746
       H    -1.37611   -3.87602    2.32040
       O    -1.83178   -3.74015    3.18717
      H1    -1.78211   -4.63328    3.60113
       H    -5.24340   -1.16738   -1.83058
       O    -6.02852   -1.72180   -2.02596
      H1    -5.61887   -2.61257   -2.12158
       H    -3.76938   -3.85968   -1.99722
       O    -4.46346   -4.11996   -2.59179
      H1    -4.02223   -3.80984   -3.41271
       H     2.64855   -3.76786   -0.17442
       O     2.13729   -4.31904    0.45736
      H1     1.39583   -3.67163    0.66307
       H    -1.10251  -10.85434    0.22556
       O    -0.44956  -10.40729    0.77747
      H1    -0.93211   -9.95887    1.51063
       H     0.29113   -3.95115   -3.06363
       O    -0.24107   -3.17349   -3.27283
      H1    -0.06092   -3.07110   -4.20280
       H     0.26776   -8.90308    3.52940
       O     0.86167   -8.36221    4.10716
      H1     1.61010   -8.10404    3.57163
       H    -5.03706   -9.22276   -3.16804
       O    -4.10859   -9.33546   -2.91828
      H1    -3.77393  -10.06012   -3.45166
       H     2.02870   -4.45974    4.54599
       O     2.71680   -4.83245    3.96514
      H1     2.19703   -5.08697    3.19277
       H    -4.67269   -7.76537    0.09425
       O    -4.67799   -8.68735    0.19412
      H1    -4.78711   -9.04437   -0.68384
       H     1.18543   -7.66075   -0.15606
       O     1.71570   -7.36363    0.64362
      H1     2.10300   -6.58361    0.22476
       H     0.05954   -9.22138   -0.86265
       O     0.37689   -8.62946   -1.53364
      H1    -0.43824   -8.28633   -1.90674
       H    -1.44437   -2.91543   -1.98132
       O    -2.23040   -2.94505   -1.42187
      H1    -2.07783   -2.15350   -0.90981

