90
frame 2 | Written by MDAnalysis XYZWriter (release 2.4.3)
       H    -5.72743   -8.33685  -10.59257
       O    -5.97165   -8.55445   -9.69815
      H1    -5.43140   -7.89026   -9.15990
       H   -12.54151   -8.07574   -2.00570
       O   -12.39619   -8.92326   -1.55630
      H1   -11.50842   -9.13388   -1.92930
       H    -6.83062   -9.19332   -5.64305
       O    -7.67275   -8.82041   -5.35603
      H1    -7.53869   -7.90156   -5.08264
       H   -10.97849   -5.51383   -4.25694
       O   -11.47311   -4.91277   -4.79805
      H1   -11.05941   -5.07637   -5.67320
       H   -10.15594   -7.91258   -9.58480
       O   -11.10800   -7.72160   -9.84417
      H1   -11.15198   -6.79580  -10.14152
       H   -13.16051   -3.83958   -8.49582
       O   -12.76593   -2.93475   -8.61559
      H1   -12.60180   -2.76808   -7.68059
       H    -6.55378   -6.57599   -2.92518
       O    -5.93516   -6.70654   -2.21965
      H1    -5.33691   -6.01666   -2.52184
       H    -8.95224   -4.44601  -10.57578
       O    -8.02581   -4.66814  -10.71377
      H1    -7.63858   -3.80315  -10.52516
       H    -9.75979   -6.95498   -7.74273
       O    -9.58210   -6.19419   -7.18659
      H1    -9.61109   -6.63204   -6.28321
       H   -11.00662   -3.26668   -9.66431
       O   -10.54783   -3.35685  -10.57003
      H1   -11.17244   -4.01248  -10.95237
       H    -9.01572   -9.48050   -6.51541
       O    -9.68799   -9.86173   -7.15233
      H1    -9.80499  -10.74777   -6.68897
       H   -13.79679   -6.94457   -5.49462
       O   -13.35179   -7.75958   -5.73048
      H1   -13.99304   -8.42691   -5.41824
       H   -10.67451   -1.74519   -3.98512
       O   -10.02073   -1.23343   -4.44628
      H1    -9.19966   -1.24056   -3.93741
       H   -12.39760  -10.56888   -7.67794
       O   -11.93486  -10.86324   -8.49116
      H1   -11.12680  -10.38499   -8.30653
       H    -6.57341  -11.48375   -8.34090
       O    -7.41521  -11.77541   -7.90958
      H1    -7.38555  -11.49114   -6.98418
       H    -9.48707   -8.55921   -1.35406
       O    -9.66076   -9.03728   -2.18905
      H1    -9.99553   -8.43768   -2.86594
       H    -4.84618   -8.71049   -6.95710
       O    -5.20446   -9.59324   -6.88376
      H1    -5.20029   -9.93276   -7.79663
       H   -11.40496   -7.78892   -5.11666
       O   -10.48573   -7.78240   -4.79868
      H1   -10.13285   -8.52643   -5.26989
       H    -7.55769   -5.18920   -8.97550
       O    -7.31697   -5.17154   -8.06206
      H1    -8.16346   -5.23986   -7.60408
       H   -10.95646   -5.68279   -1.90091
       O   -10.03856   -5.68276   -1.99457
      H1    -9.69400   -6.24331   -1.25262
       H   -12.39949   -2.55030   -5.06254
       O   -12.43235   -2.39075   -6.00747
      H1   -11.63706   -1.86146   -6.27786
       H    -5.59572   -5.98791   -8.01767
       O    -4.82261   -6.33269   -8.44159
      H1    -4.13747   -6.55975   -7.73937
       H    -8.51753   -9.44180   -9.68959
       O    -8.50938   -8.47110   -9.77658
      H1    -7.53324   -8.32329   -9.77286
       H   -14.62065   -4.93227   -6.12955
       O   -14.27224   -5.22086   -5.21923
      H1   -13.39839   -4.85483   -5.29499
       H   -13.13236   -8.07476   -7.20067
       O   -13.31315   -8.28765   -8.13824
      H1   -12.38913   -8.22619   -8.49963
       H   -13.31217   -6.18153   -3.00647
       O   -12.76764   -6.41664   -2.26358
      H1   -12.94027   -5.69378   -1.56940
       H    -7.25365   -3.14350   -4.29354
       O    -7.64310   -3.68015   -4.98156
      H1    -8.45948   -3.16064   -5.13263
       H    -8.89156   -5.96061   -3.44934
       O    -8.13705   -6.14649   -4.05032
      H1    -8.06493   -5.20227   -4.36927
       H   -14.16693   -5.56084   -9.76094
       O   -13.58177   -5.45737   -8.97303
      H1   -13.34294   -6.39639   -8.70731
       H    -5.07313   -2.48766   -7.66373
       O    -5.60156   -2.30624   -6.85122
      H1    -6.28785   -2.96241   -6.88140

