90
frame 2 | Written by MDAnalysis XYZWriter (release 2.4.3)
       H    16.27080   -0.79844   10.11508
       O    16.72000    0.05986   10.09786
      H1    17.55733   -0.10886    9.67317
       H    11.73850    2.31592    9.27737
       O    12.23280    3.05299    8.81922
      H1    13.10294    3.07048    9.28371
       H    14.95954    0.33957   12.44352
       O    14.92096   -0.44336   13.03650
      H1    15.59947   -0.21619   13.68987
       H    16.25897    3.06392   10.34654
       O    16.39068    2.47650   11.09634
      H1    16.84096    1.73452   10.61784
       H     7.09171    2.57699   13.73137
       O     8.00427    2.86403   13.87590
      H1     8.32975    2.69013   12.97486
       H    11.82872    1.05309   10.90480
       O    11.20375    0.69493   10.24109
      H1    11.55746   -0.22813   10.26885
       H     7.47962    3.07607   11.18591
       O     8.44981    3.05936   11.23471
      H1     8.64064    2.22365   10.75931
       H    13.88017    0.75695    7.85534
       O    14.75584    1.12345    7.80996
      H1    15.23658    0.63197    8.49620
       H     9.53296   -1.35612   13.57421
       O    10.11437   -1.64322   12.87372
      H1    10.74291   -0.88906   12.82933
       H    14.87691    2.91239    8.32612
       O    15.10567    3.80778    8.64139
      H1    14.77022    4.41138    8.01916
       H     9.98585   -0.89579    5.82972
       O     9.68066   -0.68232    6.72557
      H1     8.89688   -0.16303    6.51176
       H     5.90532    0.22584   12.41390
       O     5.95074   -0.66919   12.01151
      H1     6.28280   -1.33717   12.67637
       H    11.06365   -2.29834   10.94529
       O    11.54703   -2.09685   10.14681
      H1    12.44016   -2.17900   10.45379
       H     9.95828    3.91024   11.11556
       O    10.86525    4.28639   11.31224
      H1    11.38987    4.14530   10.50576
       H    14.48177   -1.51224   11.54241
       O    14.16290   -1.80987   10.66955
      H1    14.31878   -2.78072   10.73760
       H    13.84387    2.68989   13.05621
       O    13.97583    2.02807   12.38079
      H1    14.77904    2.19740   11.89746
       H    12.36967    0.47554   14.46910
       O    12.17973    0.03917   13.62363
      H1    12.53926    0.76386   13.07955
       H     9.39857    5.72019    7.95503
       O    10.03209    4.99843    7.79326
      H1    10.73794    5.29485    8.32077
       H    11.07736    0.48245    7.01037
       O    11.97942    0.92137    6.78500
      H1    12.04622    1.71460    7.31615
       H     9.34796    0.24538   10.61805
       O     8.40779    0.52745   10.57510
      H1     7.84793   -0.14096   10.99249
       H    10.55993   -2.57057    8.71682
       O     9.82642   -2.99662    8.19720
      H1     9.49128   -2.30663    7.55643
       H    12.51587   -2.18948   15.61521
       O    13.34717   -1.70239   15.68993
      H1    13.35406   -1.26532   14.80221
       H     7.47745   -2.61513    9.08053
       O     7.41696   -3.30042    9.75896
      H1     8.27197   -3.62424    9.89237
       H    10.35368    5.97325   10.87156
       O    10.48501    6.92332   10.81332
      H1     9.66682    7.31318   10.43045
       H    12.74974    1.43533    5.39438
       O    13.34894    1.66987    4.63340
      H1    12.92677    1.26484    3.84785
       H    11.51975   -4.20359    7.37284
       O    12.30084   -4.75320    7.62548
      H1    12.51439   -5.25510    6.79821
       H     8.79267    3.99117    6.44640
       O     8.23876    4.29259    5.75991
      H1     8.51613    5.11347    5.46610
       H     8.98219   -4.91519   13.03061
       O     9.90573   -4.67746   13.17781
      H1     9.87266   -3.72242   12.98800
       H     8.73259   -0.23328   15.75690
       O     8.36187   -0.06621   14.87058
      H1     8.91614    0.65120   14.60698
       H     7.60700    2.34377    6.73073
       O     7.58517    1.54784    6.19617
      H1     7.67348    1.82245    5.25144

