90
frame 1 | Written by MDAnalysis XYZWriter (release 2.4.3)
       H    10.43180   12.57868  -17.19092
       O    10.71342   13.01573  -16.40585
      H1    11.65411   12.76908  -16.27242
       H    15.36596    4.71744  -19.93118
       O    14.78129    5.17030  -19.23800
      H1    15.55456    5.42312  -18.64917
       H    15.92067   11.95745  -13.37749
       O    16.65252   12.44312  -12.94050
      H1    16.04794   13.00184  -12.40522
       H    11.16513    8.53671  -13.01376
       O    10.42864    7.95532  -12.90367
      H1    10.86835    7.22259  -13.37333
       H    10.44031    9.45568  -16.53779
       O    10.83782    9.26681  -17.42086
      H1    10.48648   10.00035  -17.93569
       H    13.28379    7.97127  -19.00317
       O    13.10047    7.42416  -19.80758
      H1    13.70319    6.68527  -19.57723
       H    16.22459    9.52888  -14.57618
       O    16.11542   10.12656  -15.34453
      H1    17.07224   10.43933  -15.47574
       H    17.99219    7.39610  -17.24252
       O    18.41339    6.83316  -16.58039
      H1    19.31522    6.98480  -16.84578
       H    16.75667   13.40951  -14.60365
       O    16.78839   13.80510  -15.52050
      H1    15.98221   13.37995  -15.81343
       H     9.48654    6.47584  -16.85712
       O     8.99780    7.25891  -16.66768
      H1     9.55988    7.95629  -17.09476
       H    14.39558    8.16554  -14.43426
       O    13.90766    8.98818  -14.43173
      H1    14.46132    9.62915  -14.98403
       H    14.75848    4.88933  -13.96236
       O    14.38645    5.80184  -13.98967
      H1    13.41332    5.74081  -14.14269
       H    16.61685    5.15921  -12.75716
       O    17.37846    5.68290  -12.42116
      H1    17.96699    5.49298  -13.18342
       H    11.42600    5.86283  -14.89977
       O    11.67042    5.89187  -13.97842
      H1    11.35783    5.05448  -13.59871
       H    16.75193    8.54719  -18.97536
       O    17.56148    8.34480  -18.56797
      H1    18.10283    9.17113  -18.63749
       H    14.38051   13.59342  -17.57000
       O    14.91753   14.36424  -17.41141
      H1    15.36236   14.52019  -18.27055
       H    15.37322   14.93227  -11.51513
       O    14.60606   14.48795  -12.03532
      H1    14.27107   15.28718  -12.40434
       H    12.93443    6.16909  -11.97400
       O    12.76690    5.53633  -11.27243
      H1    13.62248    5.48212  -10.74435
       H     9.71282    9.18075  -14.58632
       O     9.68925   10.11616  -14.92215
      H1    10.48207   10.48143  -14.50009
       H    16.54915    6.48747  -16.10448
       O    15.63055    6.73711  -16.31584
      H1    15.18210    6.25670  -15.63420
       H    12.68281    9.07988  -17.24739
       O    13.60524    8.88321  -17.37033
      H1    13.96379    8.44225  -16.61061
       H    18.29542   11.70906  -12.55963
       O    19.22112   11.44338  -12.44400
      H1    19.19176   10.44512  -12.45405
       H    19.68939    7.62182  -11.52198
       O    19.32467    8.48289  -11.82822
      H1    18.69066    8.20499  -12.52084
       H    14.67881   12.27955   -9.61793
       O    13.78078   12.12371   -9.99005
      H1    13.69025   12.81404  -10.66530
       H    18.40243   11.89930  -16.98111
       O    18.65748   11.19996  -16.34037
      H1    19.13162   11.75381  -15.71515
       H    15.81002    8.79826  -12.76233
       O    16.41002    8.26877  -13.28128
      H1    16.74616    7.55015  -12.73882
       H    12.20609   11.38713  -13.07349
       O    11.72984   10.67014  -12.67704
      H1    11.07144   10.97194  -12.03517
       H    14.02953    9.55014  -12.87481
       O    14.63312    9.76776  -12.10033
      H1    13.97662    9.99443  -11.42521
       H    13.78030   11.47391  -17.10149
       O    13.31369   12.26655  -17.31173
      H1    13.26200   12.18625  -18.26203
       H    13.59917   13.40480  -13.48835
       O    12.85124   12.96164  -13.90824
      H1    12.07205   13.35979  -13.46064

