90
frame 1 | Written by MDAnalysis XYZWriter (release 2.4.3)
       H    -6.52775  -13.01674    8.28301
       O    -5.95719  -13.63173    7.82993
      H1    -5.00463  -13.40758    8.03651
       H    -0.07843   -8.17712    9.46247
       O    -0.12254   -8.89063   10.12291
      H1     0.37613   -9.60917    9.71312
       H     2.11650  -14.65508    7.27897
       O     1.22147  -14.29188    7.15669
      H1     1.24750  -14.01177    6.21989
       H    -3.24311  -11.78144    6.55058
       O    -3.57135  -11.13512    5.91392
      H1    -2.97255  -10.39892    5.90478
       H    -0.77262  -15.67040    8.58047
       O    -0.97113  -15.87743    7.69339
      H1    -0.38348  -15.30641    7.21211
       H    -5.61447  -15.94143    9.19763
       O    -6.49204  -16.34008    9.38339
      H1    -7.04529  -16.28455    8.58870
       H    -7.42901  -10.79891    3.25453
       O    -6.57163  -11.21628    3.02927
      H1    -6.41646  -11.55897    3.94415
       H    -6.47227  -13.05724   10.97168
       O    -6.93064  -13.86246   11.09310
      H1    -6.54417  -14.28511   10.32896
       H    -0.48727  -17.43236    7.38425
       O    -0.22986  -18.29282    6.91280
      H1    -0.50646  -18.14403    5.97046
       H    -1.61474   -9.85120    3.79683
       O    -1.38361   -9.33197    3.04649
      H1    -2.14824   -8.76739    2.93106
       H    -4.31460  -16.68994   10.76221
       O    -3.65260  -16.62669   10.05263
      H1    -3.46089  -17.53944    9.83907
       H    -4.75326   -9.49305    8.41016
       O    -5.74515   -9.57789    8.29690
      H1    -5.95047  -10.38349    8.78567
       H    -3.98768  -11.52627   12.23399
       O    -3.57483  -11.81452   11.44178
      H1    -3.24626  -10.97335   11.12078
       H    -2.81659  -10.24989    8.00611
       O    -3.06683   -9.92019    8.91842
      H1    -2.35302   -9.28075    9.06752
       H    -0.56317  -11.16305    7.30131
       O    -1.11439  -10.44570    6.95478
      H1    -0.47399   -9.74862    6.94607
       H    -2.47708  -13.06644    8.44483
       O    -3.13006  -13.02958    7.72699
      H1    -3.11450  -13.96075    7.42861
       H    -1.20950  -13.77662   10.34265
       O    -1.44798  -12.87102   10.00943
      H1    -2.19522  -12.67714   10.60362
       H    -2.10765  -15.87234   10.33855
       O    -1.17133  -15.70346   10.50532
      H1    -0.84292  -16.61716   10.66266
       H    -4.41518  -17.40855    6.92473
       O    -5.10773  -17.99481    6.52911
      H1    -5.92201  -17.40214    6.60490
       H    -0.52443  -13.91955    4.82311
       O    -0.02817  -13.09995    4.88263
      H1     0.43215  -12.88422    4.03521
       H    -6.45531  -15.67981    5.18506
       O    -6.09020  -15.80622    4.27921
      H1    -6.71896  -16.42404    3.92022
       H    -8.04129  -13.11357    5.51231
       O    -8.87927  -13.41527    5.89124
      H1    -9.07866  -14.19716    5.31008
       H    -2.74677  -15.98649    7.30262
       O    -3.46237  -15.61415    6.75254
      H1    -3.06402  -15.55546    5.85225
       H    -5.20728  -11.94324    5.76064
       O    -5.98121  -12.41798    5.41812
      H1    -6.10426  -13.12134    6.12116
       H    -0.04238  -12.04627    9.10948
       O     0.69008  -11.78273    8.52340
      H1     0.82005  -12.57200    7.98716
       H    -4.11494  -17.70637    5.14578
       O    -3.86038  -17.48906    4.23957
      H1    -4.44508  -16.75629    4.13098
       H    -3.62337  -12.20179    4.14269
       O    -3.47087  -12.62479    3.29108
      H1    -4.24392  -13.24085    3.32698
       H    -2.07773  -16.21417    3.87421
       O    -1.75256  -15.37728    4.20149
      H1    -2.14997  -14.75619    3.57649
       H    -1.90428  -15.17350   13.53171
       O    -1.43984  -14.49244   13.01285
      H1    -1.46312  -14.91488   12.10897
       H    -4.97412  -11.43611   10.54277
       O    -5.93701  -11.29733   10.20767
      H1    -6.15947  -10.55120   10.80081

