90
frame 2 | Written by MDAnalysis XYZWriter (release 2.4.3)
       H    -1.09646   14.30506   -2.09480
       O    -1.71663   14.04325   -1.40053
      H1    -1.60855   14.81134   -0.81613
       H    -5.36036   19.09745   -8.08962
       O    -4.37658   19.19581   -8.33508
      H1    -4.14997   19.85037   -7.64514
       H    -3.38892   12.97520   -6.87756
       O    -3.11628   12.11441   -7.25384
      H1    -2.26046   12.31308   -7.61775
       H    -4.85701   16.64795   -4.87687
       O    -4.02523   16.59832   -4.42712
      H1    -4.40434   15.98035   -3.76778
       H     3.40538   15.02439   -2.18301
       O     4.13468   15.65391   -2.29041
      H1     3.67020   16.52108   -2.35011
       H     1.99027   16.28433  -11.61440
       O     1.95927   17.22502  -11.38577
      H1     1.98535   17.66554  -12.28071
       H    -2.40657   16.70028   -0.14191
       O    -1.42207   16.75814   -0.30729
      H1    -1.23993   16.86609   -1.26952
       H    -3.78077   18.29181   -4.27731
       O    -3.74988   19.28754   -4.33244
      H1    -3.83621   19.45550   -3.38255
       H    -2.22436   17.28348   -6.91300
       O    -1.50553   17.34126   -6.27878
      H1    -1.16837   18.22710   -6.56205
       H     1.27103   15.21485   -6.53125
       O     0.58619   15.47588   -7.21079
      H1     0.13194   16.03652   -6.57578
       H     0.60120   14.35724   -2.86600
       O     0.00877   14.51227   -3.61969
      H1    -0.46361   13.68543   -3.78330
       H    -0.34216   12.74344   -8.79494
       O    -0.59212   13.03112   -7.87023
      H1    -0.31660   13.94797   -7.77487
       H     3.21722   14.53252   -5.16395
       O     2.32683   14.33035   -5.44168
      H1     1.73768   14.27320   -4.71208
       H    -1.90272   13.04999   -5.34166
       O    -1.60545   12.50310   -4.63850
      H1    -2.23146   12.60307   -3.94473
       H    -3.73388   17.52793   -8.37731
       O    -3.31063   16.63995   -8.36490
      H1    -3.90165   16.14733   -8.92206
       H    -3.11026   14.80405   -7.02494
       O    -3.04738   14.55825   -6.09952
      H1    -3.18295   15.40849   -5.64615
       H     4.60813   17.12061   -7.96683
       O     3.92759   17.79553   -7.66117
      H1     3.19131   17.67146   -8.28629
       H     1.15116   13.96539  -11.36002
       O     1.54904   14.56667  -12.01355
      H1     1.76495   13.90138  -12.67429
       H    -0.67825   16.92956  -10.32659
       O    -1.52504   17.36041  -10.61074
      H1    -2.21620   17.13084   -9.97032
       H    -1.03642   18.34565   -3.53235
       O    -0.87592   17.37002   -3.33672
      H1    -1.32265   17.03718   -4.12861
       H     0.72351   11.73143  -10.83741
       O     0.44761   12.57024  -10.38233
      H1    -0.42426   12.62474  -10.74040
       H     5.31949   15.08648   -8.26748
       O     5.74314   15.90943   -7.92533
      H1     5.56909   15.88952   -6.96538
       H     1.06766   17.49895   -3.20368
       O     1.91260   17.39915   -2.73719
      H1     2.34479   18.21318   -3.11016
       H     2.64903   13.06955  -10.77859
       O     3.53462   12.84922  -10.45143
      H1     4.06113   13.33229  -11.13902
       H     4.22791   12.82869   -7.38387
       O     4.97180   12.92217   -8.04468
      H1     4.46039   12.99882   -8.92479
       H     5.24488   16.03007   -4.72717
       O     4.72809   15.74928   -5.51003
      H1     4.38512   16.58549   -5.87598
       H     0.60730   10.84868   -4.27294
       O     1.11169   10.86838   -3.48016
      H1     1.07529    9.91276   -3.24908
       H     2.43150   11.86384   -5.94996
       O     2.92998   11.48331   -6.67604
      H1     3.07570   10.61367   -6.38449
       H     1.05067   17.46109   -8.34251
       O     1.28866   18.24899   -8.87584
      H1     1.34878   17.82249   -9.78896
       H     0.12931   11.17927   -6.72202
       O    -0.04862   10.49326   -6.04716
      H1    -0.84972   10.89200   -5.64570

