90
frame 1 | Written by MDAnalysis XYZWriter (release 2.4.3)
       H    -2.08339    0.30751  -13.76316
       O    -1.78295   -0.19542  -12.98367
      H1    -2.58808   -0.06488  -12.40380
       H    -2.26060   -3.40530  -13.67061
       O    -2.57066   -2.58535  -14.13136
      H1    -2.22224   -1.88933  -13.52383
       H    -3.73235    1.81550  -18.06244
       O    -2.87288    1.90502  -17.60226
      H1    -2.47412    1.12991  -17.92287
       H    -6.55692    2.18083  -17.77719
       O    -7.24455    1.96856  -17.11002
      H1    -7.17386    1.00382  -17.18414
       H    -4.52760    5.15186  -18.58582
       O    -3.59091    5.02340  -18.93979
      H1    -3.14350    4.56485  -18.27372
       H    -4.90631    1.42085  -14.78435
       O    -5.85723    1.35651  -14.74381
      H1    -6.16472    1.50638  -15.63542
       H    -5.41739   -2.01032  -15.03338
       O    -5.24185   -1.30301  -15.67614
      H1    -5.25981   -0.51158  -15.15426
       H    -4.33446   -1.02243  -17.79945
       O    -4.34797   -0.64886  -18.70925
      H1    -5.08297   -1.20544  -19.03627
       H     1.39876    1.48417  -13.68441
       O     1.76288    1.58490  -14.60958
      H1     2.14776    2.44426  -14.51135
       H     4.02935   -1.86381  -19.12780
       O     3.17743   -1.67109  -19.57429
      H1     2.88482   -2.54161  -19.83811
       H    -0.45205    4.47932  -18.52491
       O    -0.70637    4.85133  -17.68713
      H1    -0.61521    4.05921  -17.09817
       H     3.24932    1.98883  -20.19744
       O     2.64994    1.90547  -19.46404
      H1     3.13107    1.25502  -18.91824
       H     2.60853   -0.23796  -17.34864
       O     3.19698    0.36996  -16.91083
      H1     2.53872    0.78923  -16.25917
       H    -0.89666   -2.11700  -16.48620
       O    -1.22195   -3.00110  -16.52647
      H1    -1.67658   -3.09155  -15.65687
       H    -0.29168    0.35185  -19.56401
       O    -1.11323    0.18207  -19.00156
      H1    -1.35066   -0.74587  -19.19684
       H    -3.26850    2.26163  -15.64269
       O    -3.14881    1.70952  -14.83165
      H1    -3.16522    2.46307  -14.24684
       H     1.13874    4.68328  -17.09283
       O     1.71404    4.53838  -16.32104
      H1     2.24650    5.34376  -16.28971
       H    -2.69362   -3.44324  -17.36970
       O    -3.35848   -3.61775  -18.06502
      H1    -3.33930   -2.90392  -18.70234
       H     4.97406    5.36880  -16.63469
       O     4.83548    4.44183  -16.91165
      H1     4.03428    4.16341  -16.55285
       H     1.25573   -5.59976  -18.83815
       O     2.11079   -5.27875  -18.50844
      H1     2.28341   -4.60722  -19.21181
       H     5.90542   -1.37090  -18.65891
       O     5.59112   -2.19960  -18.20219
      H1     6.23277   -2.90554  -18.50974
       H     0.46153    5.06666  -15.20846
       O    -0.01690    5.13432  -14.34739
      H1    -0.65751    5.83285  -14.56492
       H     0.06842    2.20366  -15.52450
       O    -0.41777    2.45146  -16.36553
      H1    -1.26938    1.94019  -16.25275
       H    -6.52492   -2.72943  -18.13126
       O    -6.62700   -2.23574  -18.96404
      H1    -6.62893   -3.02117  -19.57985
       H     4.73583   -0.34194  -16.46283
       O     5.45378   -0.76038  -15.89479
      H1     5.82861   -1.35196  -16.57123
       H     0.40365    0.44679  -16.54957
       O     0.22259   -0.50077  -16.72414
      H1    -0.32887   -0.31906  -17.53776
       H    -6.20952   -4.95587  -16.34539
       O    -6.06333   -4.35902  -17.13957
      H1    -5.15376   -4.06154  -17.08487
       H     1.21122   -4.79737  -16.87233
       O     0.75648   -4.77847  -16.03036
      H1     0.04612   -4.11471  -16.16869
       H    -4.94358    3.39713  -19.02433
       O    -5.17220    2.52679  -18.63746
      H1    -5.35930    2.05366  -19.47414
       H     1.25155   -3.16561  -14.91612
       O     0.83656   -2.37831  -14.50503
      H1     0.76314   -1.74022  -15.30064

