90
frame 2 | Written by MDAnalysis XYZWriter (release 2.4.3)
       H    15.64153   16.71276   -1.69539
       O    15.50094   17.69081   -1.63829
      H1    16.50791   17.96498   -1.58517
       H     8.93100   15.51389   -4.59778
       O     9.63199   16.16198   -4.58297
      H1     9.29214   16.92373   -4.09675
       H    12.38733   15.05778    1.23907
       O    11.96923   14.92950    2.07808
      H1    11.68088   15.84703    2.25951
       H    14.69753   16.51117   -4.65578
       O    14.02868   17.13204   -4.26345
      H1    13.73393   16.68390   -3.44378
       H    17.21547   16.56473   -6.97606
       O    16.55546   17.25146   -7.12421
      H1    16.82871   17.68305   -7.98122
       H    12.02318   17.92540    1.96705
       O    11.42392   17.51488    2.63929
      H1    11.94819   17.50510    3.46517
       H    15.21606   18.02552    0.14955
       O    14.92773   18.18293    1.06103
      H1    15.45756   19.06697    1.17586
       H    13.80281   14.07541   -0.57610
       O    12.92158   14.27197   -0.33817
      H1    12.43451   13.55368   -0.75828
       H    12.11119   19.38277   -0.04515
       O    12.39795   18.47345    0.15572
      H1    13.39368   18.52936    0.37510
       H    10.93502   12.90545   -1.63159
       O    11.37951   12.13719   -1.14983
      H1    10.94468   12.28100   -0.27715
       H    18.35087   18.55520   -0.34117
       O    18.38013   17.91915   -1.11922
      H1    18.62057   17.05473   -0.65897
       H    11.60130   14.03738   -7.74268
       O    11.50180   14.30809   -6.77680
      H1    11.80957   15.21588   -6.71062
       H    10.50107   15.75094   -0.36401
       O     9.83802   16.30719    0.08170
      H1    10.35880   17.12137    0.13232
       H    20.04634   15.55083   -3.54446
       O    19.22251   16.06974   -3.67917
      H1    18.59650   15.53245   -3.15091
       H    10.87643   12.65473   -5.07009
       O    11.28584   11.91992   -4.62193
      H1    10.50046   11.31215   -4.52852
       H    16.44967   10.53775   -3.50278
       O    16.43820   11.28582   -2.84988
      H1    15.52321   11.36833   -2.42701
       H     8.97472   18.11965   -6.95813
       O     8.76301   18.91571   -6.45409
      H1     7.89170   19.20905   -6.81575
       H     9.15256   14.09186   -2.29280
       O    10.11207   14.31843   -2.07889
      H1    10.09120   15.09363   -2.72169
       H    16.97173   13.73659   -3.32468
       O    17.68511   14.01902   -2.70141
      H1    18.11033   13.14358   -2.57656
       H    11.08108   16.72889   -6.10073
       O    11.80915   17.10675   -6.73614
      H1    12.63521   17.13348   -6.23122
       H    18.20994   15.23056   -5.21961
       O    17.69561   14.94978   -6.00666
      H1    16.86174   14.78870   -5.54862
       H    15.66712   12.62625   -4.08754
       O    15.81251   13.47235   -4.45317
      H1    15.03014   13.51348   -5.08510
       H    16.25525   14.34318   -1.91783
       O    15.38712   14.57080   -1.65337
      H1    14.83450   14.26129   -2.45238
       H    13.39694   14.36088   -6.42930
       O    14.33614   14.57549   -6.31854
      H1    14.53915   14.93309   -7.18152
       H    12.94713   11.14433   -4.54279
       O    13.92057   11.02666   -4.69643
      H1    13.72261   10.77602   -5.60606
       H    12.55861   15.65571   -1.60093
       O    12.26331   16.48260   -2.09822
      H1    12.30760   17.14898   -1.39476
       H    19.36251   17.89349   -4.07801
       O    19.76162   18.68978   -4.50527
      H1    19.01335   19.08764   -4.96634
       H     9.25761   17.09606   -1.53101
       O     9.52022   17.50693   -2.36803
      H1    10.42384   17.12649   -2.51689
       H    17.00940   15.87072    2.18575
       O    16.99586   16.83202    2.17195
      H1    16.00943   16.97619    2.02351
       H    15.65331   15.23405   -9.14366
       O    14.94188   15.76172   -8.74946
      H1    15.52184   16.36166   -8.24476

