90
frame 1 | Written by MDAnalysis XYZWriter (release 2.4.3)
       H    10.43180   12.57868  -17.19092
       O    10.71342   13.01573  -16.40585
      H1    11.65411   12.76908  -16.27242
       H     9.71647   13.20376   -8.38334
       O     9.16156   13.10089   -7.64562
      H1     9.58991   13.65384   -6.99138
       H    15.86154   17.05696  -13.66382
       O    15.37502   17.18713  -12.80331
      H1    14.44172   17.37481  -13.17108
       H     7.90366   16.07854  -15.37993
       O     8.66892   16.02905  -14.78243
      H1     8.64565   16.95481  -14.42467
       H     9.94939   15.98001  -16.11440
       O    10.63712   15.85930  -16.75358
      H1    10.64424   14.87698  -16.79763
       H    15.92067   11.95745  -13.37749
       O    16.65252   12.44312  -12.94050
      H1    16.04794   13.00184  -12.40522
       H     7.05002   18.82288  -13.17363
       O     6.37891   18.68243  -12.52236
      H1     6.04734   19.55536  -12.47800
       H    12.40948   16.17430  -16.30691
       O    13.32893   16.09915  -15.91711
      H1    13.68188   15.42907  -16.52275
       H    11.22772   15.29088  -12.53067
       O    11.16721   14.38318  -12.27941
      H1    10.26083   14.16956  -12.02378
       H     7.12730   12.74573  -14.93381
       O     7.57146   13.06904  -15.70994
      H1     8.45801   13.35901  -15.51740
       H    11.76887   19.44123  -11.63563
       O    12.65696   19.81676  -11.59282
      H1    13.03631   19.00382  -11.14405
       H    11.73921   14.70708   -7.97404
       O    12.05020   14.65819   -7.02395
      H1    11.79690   15.53530   -6.65570
       H    11.14880   14.99456  -10.44986
       O    11.00905   15.50881   -9.64198
      H1    11.88378   15.96082   -9.58011
       H    12.64796   16.28412  -13.92606
       O    12.43906   16.81582  -13.16384
      H1    12.00392   17.57918  -13.66763
       H     9.00667   19.32392  -14.28144
       O     8.24500   18.98350  -14.75950
      H1     8.41512   19.36885  -15.64978
       H    13.52703   16.85773  -11.13514
       O    13.51144   17.54270  -10.46766
      H1    14.36663   17.46465   -9.94568
       H    15.37322   14.93227  -11.51513
       O    14.60606   14.48795  -12.03532
      H1    14.27107   15.28718  -12.40434
       H     9.71282    9.18075  -14.58632
       O     9.68925   10.11616  -14.92215
      H1    10.48207   10.48143  -14.50009
       H    14.67881   12.27955   -9.61793
       O    13.78078   12.12371   -9.99005
      H1    13.69025   12.81404  -10.66530
       H    11.43654   18.83142  -15.22686
       O    11.38569   19.03141  -14.27449
      H1    12.16223   19.53051  -14.04966
       H     8.69657   11.78634  -11.12096
       O     9.62996   11.81334  -10.97940
      H1     9.70458   11.29930  -10.18200
       H     8.49856   15.01080  -13.17140
       O     8.31461   14.39844  -12.47225
      H1     7.36222   14.51388  -12.21541
       H     6.13166   17.24755  -10.20682
       O     7.07006   17.58799  -10.20942
      H1     6.98022   18.14919  -11.08159
       H     5.39905   13.84172  -12.17186
       O     5.77062   14.37526  -11.43020
      H1     5.15202   15.13243  -11.42069
       H    12.20609   11.38713  -13.07349
       O    11.72984   10.67014  -12.67704
      H1    11.07144   10.97194  -12.03517
       H     9.76395   18.48718  -10.83595
       O    10.06137   19.09802  -11.51674
      H1     9.32588   19.72394  -11.45781
       H    14.51322   17.96020  -17.85301
       O    14.63503   18.18585  -16.90195
      H1    14.22227   17.37532  -16.48911
       H     9.90715   16.94484   -9.39677
       O     9.31751   17.71737   -9.19973
      H1     8.51067   17.38679   -9.56475
       H    16.12180   16.02443   -9.62058
       O    15.70269   16.29136   -8.80876
      H1    16.30128   16.79649   -8.27728
       H    13.59917   13.40480  -13.48835
       O    12.85124   12.96164  -13.90824
      H1    12.07205   13.35979  -13.46064

