90
frame 1 | Written by MDAnalysis XYZWriter (release 2.4.3)
       H   -15.90037    3.74083   19.45651
       O   -15.90213    2.82144   19.13364
      H1   -16.39816    2.77944   18.28625
       H   -16.95040   -0.28499   11.73553
       O   -16.30989   -0.00538   12.37935
      H1   -16.81983    0.21216   13.19154
       H   -10.98007   -2.86353   16.18008
       O   -11.28475   -1.96488   16.38501
      H1   -10.54792   -1.35498   16.40068
       H   -17.72356    3.48008   16.52321
       O   -17.05232    2.80786   16.68600
      H1   -16.26110    3.38204   16.58962
       H   -10.08735    2.22202   16.19625
       O   -10.57283    3.07511   15.99023
      H1   -10.61677    3.56029   16.83287
       H   -18.69618   -1.94516   14.46483
       O   -18.97947   -2.15358   13.58545
      H1   -18.91392   -3.11047   13.67260
       H   -14.41239   -0.46246    9.92546
       O   -13.92411   -1.30483    9.90038
      H1   -14.51184   -1.79414    9.29569
       H   -11.22236   -5.24958   15.98530
       O   -10.99163   -4.60628   16.65222
      H1   -11.80032   -4.53762   17.21774
       H   -14.20457    3.23845   16.39743
       O   -14.84075    3.95224   16.18252
      H1   -14.35510    4.65519   16.64186
       H    -9.52985   -1.42114   19.24426
       O   -10.15062   -2.18597   19.43530
      H1   -10.56283   -2.40223   18.57226
       H   -14.50345    1.76516   19.03111
       O   -13.89498    1.01916   18.92365
      H1   -14.51717    0.32012   19.28818
       H   -11.21670    1.48700   13.28472
       O   -10.74798    0.97246   13.91281
      H1   -10.40018    0.17165   13.44709
       H   -16.55180    1.78733   15.53471
       O   -16.49541    0.99276   14.93034
      H1   -15.69823    0.54256   15.26458
       H   -13.55426   -2.49577   18.93994
       O   -13.23058   -2.56895   19.87837
      H1   -12.61034   -1.82325   19.77291
       H    -9.26366   -4.13818   13.52656
       O    -8.97274   -3.92217   14.41370
      H1    -9.72779   -4.09562   14.97500
       H   -18.00076    0.47062   17.41214
       O   -18.64809   -0.06395   17.86506
      H1   -18.37845   -0.89645   17.50439
       H   -18.30120   -5.22310   13.73528
       O   -18.41645   -4.71102   14.51931
      H1   -17.84761   -3.94747   14.58197
       H   -13.60603   -0.65689   14.72137
       O   -14.00769   -0.50215   15.58994
      H1   -13.53225    0.21246   15.98072
       H    -8.41203    0.47309   15.79935
       O    -9.24613    0.11998   16.13302
      H1    -9.81014    0.52328   15.46188
       H   -14.83960   -4.05842   13.01666
       O   -14.68156   -4.27405   12.10019
      H1   -13.80865   -3.82891   11.88974
       H   -15.41610    5.55140   13.62770
       O   -16.06375    4.96392   14.07411
      H1   -15.51491    4.53094   14.73210
       H   -12.30185   -2.66523   10.47127
       O   -12.32001   -3.33836   11.16433
      H1   -11.35561   -3.62210   11.13184
       H   -14.20569   -2.39800   15.04117
       O   -14.39738   -3.31903   14.91173
      H1   -13.70043   -3.71551   15.48681
       H    -9.02172   -1.60593   12.63585
       O    -9.03676   -0.68555   12.46256
      H1    -8.10304   -0.39223   12.44804
       H   -15.33875   -2.48006   17.00475
       O   -14.82225   -2.01861   17.69900
      H1   -14.36343   -1.32231   17.16827
       H   -13.95690    0.91625   11.85457
       O   -14.03439    1.42994   11.09457
      H1   -14.90680    1.79085   11.13528
       H   -12.45282    2.29235   11.40021
       O   -11.65890    2.65646   11.82481
      H1   -11.99274    3.46372   12.20679
       H   -13.24718   -1.63681   12.50543
       O   -13.56863   -0.99740   13.15206
      H1   -14.42792   -0.80633   12.77483
       H   -19.29505   -2.44580   16.58706
       O   -18.31224   -2.45032   16.51326
      H1   -18.11784   -2.97574   17.34215
       H   -13.16179    1.72083   17.52911
       O   -13.04517    2.07007   16.62027
      H1   -12.07319    2.17734   16.50714

