90
frame 2 | Written by MDAnalysis XYZWriter (release 2.4.3)
       H     8.15650    9.93685    3.07987
       O     7.87090   10.30209    3.94126
      H1     8.65425   10.69022    4.37800
       H     7.37376   16.48885    4.58678
       O     7.00242   15.80321    4.03380
      H1     7.59438   15.08110    4.24145
       H     3.23583   12.85497   13.21257
       O     3.52711   13.71784   12.94553
      H1     4.29021   13.47842   12.42395
       H     4.05553    8.32028    9.45328
       O     3.92833    8.61940   10.36993
      H1     4.01862    7.88956   10.97266
       H     4.37680   13.93884    1.58110
       O     3.57771   13.71237    2.03280
      H1     3.84822   14.22449    2.82929
       H     6.86039   17.74470    7.01854
       O     6.90368   18.04487    6.08878
      H1     7.78039   18.47195    6.08905
       H     2.20601   14.78628    5.74675
       O     1.48377   14.10435    5.93269
      H1     0.84834   14.32594    5.20734
       H     8.32684   14.03970    5.62817
       O     9.01803   14.45094    5.10990
      H1     9.43766   15.11115    5.70107
       H     7.06126    9.68613    9.65713
       O     6.41644   10.35934    9.72178
      H1     5.58931    9.75809    9.89230
       H    10.08019   12.79091    4.62085
       O    10.36953   11.89414    4.74560
      H1    11.05043   11.77709    4.09751
       H     3.17607   12.20607    7.87222
       O     2.54492   11.49898    8.01996
      H1     2.82490   10.93766    7.24565
       H     8.68028   13.94333    8.93592
       O     8.75608   14.92540    9.10688
      H1     8.11711   15.12752    8.36882
       H     6.16112   16.24496    8.36435
       O     6.26894   15.59933    7.69411
      H1     5.48441   15.08461    7.74074
       H     5.51860   12.90663    7.19356
       O     4.59616   13.18732    7.26746
      H1     4.31202   13.57079    6.40363
       H     9.51851   12.28518    9.07546
       O     8.60614   12.37754    8.65525
      H1     8.04638   12.29370    9.47445
       H    10.05387   15.17812    7.64465
       O    10.75471   15.19182    7.01000
      H1    11.10521   14.29100    7.04383
       H     1.20253   13.54058   10.74729
       O     1.55781   14.18637   10.12829
      H1     0.91290   14.17966    9.41209
       H     7.43409   11.57981    6.36234
       O     6.93479   12.33811    6.10355
      H1     6.68202   12.09373    5.23285
       H     6.10415   10.59105    6.50441
       O     5.62567    9.80204    6.48931
      H1     6.26746    9.08742    6.30119
       H     4.34928    8.76221    4.94914
       O     4.43482    8.71114    3.98805
      H1     3.97071    7.88700    3.77336
       H     5.29276    8.05485    7.65636
       O     4.38210    7.79460    7.93168
      H1     4.51755    6.94589    8.39263
       H     8.11077   11.46710   11.50861
       O     7.53979   12.18150   11.07564
      H1     6.86818   11.64102   10.60770
       H     4.64582   13.88168    8.92556
       O     4.29162   14.42466    9.69296
      H1     3.35678   14.18934    9.71656
       H     3.63461   15.41224    4.64672
       O     4.34709   14.75341    4.65104
      H1     5.13499   15.31566    4.78041
       H     7.48656   13.87305   11.47825
       O     7.59890   14.61881   12.05896
      H1     8.15915   15.22318   11.48756
       H     5.22517   15.97912   10.61910
       O     5.82728   16.48882   11.13252
      H1     6.34913   15.87197   11.68707
       H     1.81802   10.90160    4.41324
       O     1.59817   10.56236    5.28756
      H1     0.82583   11.04918    5.51898
       H     9.83942   10.94960    6.54532
       O     9.19268   10.36100    6.90125
      H1     8.71592   10.93507    7.55234
       H     2.29168    9.20380    9.98137
       O     1.44717    9.71349    9.66133
      H1     1.89535   10.21070    8.90555
       H     5.27999   11.76523    3.26587
       O     6.14536   12.20478    3.50743
      H1     6.72279   11.43582    3.75070

