90
frame 1 | Written by MDAnalysis XYZWriter (release 2.4.3)
       H    15.33168  -17.66995   -1.78971
       O    15.21818  -18.41635   -2.42568
      H1    15.12749  -19.19261   -1.92508
       H    13.92754  -17.34848    1.91093
       O    14.71794  -16.76490    1.81892
      H1    14.56959  -15.96549    2.35850
       H    16.41605  -15.38910   -2.25417
       O    17.00688  -15.46411   -3.05382
      H1    17.59735  -16.20481   -2.77062
       H    10.51087  -15.71392   -3.05819
       O    10.54674  -15.91752   -2.13340
      H1    11.29347  -16.51430   -2.05719
       H    17.71397  -13.20666    7.19175
       O    16.86195  -13.58578    7.44467
      H1    16.57637  -14.05392    6.65246
       H    11.13370  -12.72952    1.57784
       O    11.98743  -12.35983    1.89512
      H1    11.84939  -12.03802    2.78912
       H    12.06480  -18.75364   -3.54609
       O    12.30738  -18.18942   -2.78236
      H1    13.27983  -18.30154   -2.63942
       H    11.78146  -11.39194    0.30453
       O    12.07212  -10.76247   -0.37987
      H1    11.32187  -10.33665   -0.73671
       H    10.34293  -16.64913    0.20059
       O    10.33029  -15.98976    0.94012
      H1    10.00307  -15.18687    0.50887
       H    15.85509  -15.21723    0.61829
       O    16.52788  -14.73035    1.08033
      H1    17.21936  -15.40130    1.11776
       H     8.81246  -17.04667    2.11700
       O     8.03257  -17.48106    2.51975
      H1     7.77370  -17.92314    1.74212
       H    13.58538  -13.80097    2.80378
       O    13.82542  -14.62663    3.28625
      H1    12.92754  -14.95544    3.43352
       H    17.44596  -18.05774   -0.64432
       O    17.14984  -18.74082   -0.01720
      H1    17.55723  -18.47798    0.78178
       H    14.40167  -15.80828    4.82879
       O    15.14431  -16.26622    5.23678
      H1    14.95106  -17.24329    5.19171
       H    17.91157  -17.71962    3.45685
       O    18.06109  -18.23298    2.62815
      H1    18.90499  -18.70723    2.77922
       H    12.60750  -19.24080    2.56349
       O    12.84238  -18.43464    3.08209
      H1    13.11741  -18.78532    3.94982
       H    14.68573  -15.84484    7.47924
       O    14.79736  -16.09539    8.43050
      H1    13.83495  -16.30511    8.64716
       H    14.80614  -16.42391    0.08560
       O    15.02643  -16.22244   -0.84136
      H1    14.25182  -15.72760   -1.12111
       H    12.48577  -16.40771    6.88569
       O    12.18498  -17.32120    6.89483
      H1    12.80361  -17.73792    7.48940
       H    10.77362  -14.49179    4.30090
       O    10.40796  -14.02152    5.09109
      H1     9.88396  -13.30739    4.66582
       H    10.98496  -15.88824    2.53868
       O    11.50173  -15.95350    3.36454
      H1    11.92542  -16.82230    3.29700
       H    12.74019  -13.87268    7.47413
       O    12.66056  -14.50407    6.73633
      H1    11.84154  -14.16627    6.30628
       H    13.00186  -13.67864   -0.16063
       O    13.02483  -14.36626   -0.82187
      H1    12.08484  -14.38515   -1.11576
       H    13.79831  -11.06386    2.18614
       O    14.61979  -11.09344    2.71622
      H1    15.28980  -11.43776    2.07516
       H    18.13593  -11.35042    5.69001
       O    17.76473  -11.36499    4.82662
      H1    17.31446  -12.21502    4.83849
       H    19.43433  -16.49686   -1.01226
       O    18.64564  -16.91407   -1.48431
      H1    19.27776  -17.39520   -2.05595
       H    16.83820  -13.06089    1.28458
       O    16.81923  -12.08879    0.98661
      H1    17.72818  -11.86862    1.20658
       H    16.90012  -16.20061    5.19877
       O    17.88395  -16.11433    5.07437
      H1    18.19905  -16.17346    6.03084
       H    17.04288  -14.46275    4.40799
       O    16.35380  -13.80347    4.49138
      H1    15.59920  -14.13168    3.97094
       H    10.36274  -19.13332   -0.52958
       O    11.17613  -18.62171   -0.29480
      H1    11.54625  -18.45473   -1.17791

