90
frame 2 | Written by MDAnalysis XYZWriter (release 2.4.3)
       H     3.99462    7.50205  -13.73572
       O     4.49273    7.88160  -13.00098
      H1     4.14094    8.79157  -12.99790
       H     6.81750   10.78906   -8.84875
       O     6.81346   11.66918   -9.26734
      H1     6.23582   12.14908   -8.62388
       H     1.19909    3.74925   -9.20752
       O     1.28498    4.54517   -8.60597
      H1     1.10968    5.33573   -9.25822
       H     2.65191   10.05792  -12.47955
       O     3.31997   10.51691  -13.03105
      H1     3.98971   10.75541  -12.32675
       H     7.09993   10.53372  -13.76159
       O     6.64859   11.03114  -14.45504
      H1     6.97205   10.61155  -15.25051
       H     3.83144    2.96857  -10.03795
       O     4.39003    3.20402  -10.76812
      H1     4.39648    4.15549  -10.73243
       H     0.99279    4.86851  -13.55069
       O     1.74159    5.05477  -12.94456
      H1     1.86477    4.21295  -12.48377
       H     6.76051    2.88850  -14.04141
       O     6.37372    2.05602  -14.36672
      H1     5.69301    1.96330  -13.70260
       H     2.30613    8.26498   -8.67108
       O     1.45649    8.19502   -9.15028
      H1     1.64497    7.51478   -9.80964
       H     1.19131    2.23463  -13.31543
       O     1.82375    2.06973  -14.01279
      H1     2.00231    3.00255  -14.32684
       H     3.14948   11.71297  -17.07747
       O     2.62440   11.66940  -16.26995
      H1     1.95743   10.95770  -16.39187
       H     2.07777   11.69737  -13.44123
       O     1.29302   12.19340  -13.78146
      H1     1.45449   12.37178  -14.68745
       H     0.28941    9.82817  -12.20781
       O     1.00026   10.02088  -11.59216
      H1     0.86716    9.40999  -10.86487
       H     4.87854    6.96637  -15.96560
       O     3.93427    6.85894  -16.22035
      H1     3.53189    7.53795  -15.64448
       H     7.85577    7.09718  -12.23150
       O     8.56105    6.44367  -12.55583
      H1     9.24598    7.13758  -12.58815
       H     6.61179    6.08586  -15.03300
       O     6.60252    6.99689  -15.37534
      H1     7.17623    6.87584  -16.20940
       H     7.70761    4.42057  -15.13162
       O     7.40138    4.48071  -14.21949
      H1     8.08916    4.97797  -13.76797
       H     1.22933    8.21832  -14.92715
       O     2.11223    8.44286  -14.75283
      H1     2.09148    9.29827  -15.17326
       H     3.97788   11.01294  -10.46569
       O     4.67354   10.37804  -10.71430
      H1     5.44260   10.87254  -10.43467
       H     1.17671    5.32679  -17.47170
       O     1.63988    5.23205  -16.64632
      H1     2.21399    5.97152  -16.47056
       H     5.00900    4.31306  -16.01278
       O     5.30745    3.81091  -16.79745
      H1     4.80134    3.05197  -16.88175
       H     4.83529    8.64839   -7.97531
       O     3.89856    8.91922   -8.18832
      H1     4.13658    9.42272   -8.97796
       H     6.07248    8.17718  -12.45007
       O     6.84993    8.44951  -11.96502
      H1     6.44949    8.45362  -11.08576
       H    -1.00545    8.05497  -15.59249
       O    -0.59301    7.75237  -14.77679
      H1    -1.01783    8.31960  -14.13943
       H     5.29572    6.34432  -11.68044
       O     5.81225    5.56685  -11.42819
      H1     6.56072    5.53927  -12.11606
       H     1.31354    6.58383  -12.38325
       O     0.86180    7.33679  -11.89775
      H1     1.25776    8.06244  -12.34825
       H     2.64903   13.06955  -10.77859
       O     3.53462   12.84922  -10.45143
      H1     4.06113   13.33229  -11.13902
       H     0.37518    4.70527  -15.39967
       O    -0.41294    4.86474  -14.87245
      H1    -0.34841    5.80509  -14.77308
       H     6.58461    3.19738   -8.67852
       O     7.20480    3.29041   -9.43748
      H1     6.52316    3.41996  -10.14435
       H     3.91998   12.52717  -15.40238
       O     4.37281   13.09413  -14.77447
      H1     5.06052   12.46334  -14.51574

