90
frame 1 | Written by MDAnalysis XYZWriter (release 2.4.3)
       H    17.67102   -7.00434  -17.11529
       O    16.76778   -7.26227  -17.13117
      H1    16.97975   -7.86562  -17.88705
       H    14.49552   -9.35845  -12.85161
       O    14.34611   -8.86171  -13.67556
      H1    14.70350   -8.03983  -13.32683
       H    17.97680  -17.05932  -11.65762
       O    17.59745  -17.34963  -10.77994
      H1    16.61213  -17.28137  -10.95488
       H    15.47286  -19.17075  -17.11495
       O    15.95265  -18.39799  -17.35215
      H1    15.90616  -17.79016  -16.59176
       H    16.88947  -16.32425  -15.36788
       O    16.14282  -16.85650  -15.19638
      H1    16.25295  -17.71840  -14.68460
       H    11.73197  -13.58518  -15.87605
       O    12.51147  -13.95024  -16.22739
      H1    13.13038  -13.67177  -15.49753
       H    17.40597  -14.00624  -10.45876
       O    18.22317  -13.80381   -9.95428
      H1    18.53211  -14.71054   -9.86434
       H    18.44395  -10.64746  -12.64877
       O    18.44208  -11.57601  -12.50625
      H1    18.59856  -11.77969  -11.58542
       H    12.84320   -8.24737  -16.70326
       O    13.61702   -8.80835  -16.44394
      H1    13.77240   -8.60571  -15.48546
       H    18.18809  -11.81307  -17.07282
       O    18.38569  -12.60534  -17.62529
      H1    17.61874  -13.15410  -17.30095
       H    11.68843  -16.10833  -11.85196
       O    12.05578  -15.39351  -12.41928
      H1    12.97867  -15.38136  -12.12613
       H    17.45858  -12.63280   -7.27991
       O    17.78419  -11.89863   -7.81892
      H1    17.93920  -12.35304   -8.62356
       H    12.89883  -16.87759  -13.70998
       O    12.99547  -17.56112  -14.41374
      H1    13.09832  -16.95650  -15.15633
       H    15.60782  -10.07755  -18.44822
       O    16.15912   -9.62233  -19.10547
      H1    17.06589   -9.67344  -18.73808
       H    18.58667  -16.45579   -9.56454
       O    19.16886  -15.93318   -8.96032
      H1    18.90343  -16.20759   -8.02306
       H    15.14037  -14.11064  -13.93337
       O    14.60854  -14.83472  -13.63211
      H1    15.12627  -15.57188  -14.12382
       H    15.75823   -6.27878  -13.82569
       O    16.18210   -6.88347  -13.16200
      H1    17.06332   -6.49018  -13.21683
       H    15.58284  -15.31695  -10.64477
       O    15.73423  -14.42135  -11.05860
      H1    15.34530  -14.51815  -11.92070
       H    15.84356  -11.01490  -15.20480
       O    16.71473  -11.18747  -14.72774
      H1    16.51414  -11.09110  -13.79713
       H    16.82685  -10.52598   -8.92023
       O    16.90243   -9.59803   -9.27418
      H1    17.85168   -9.37196   -9.31514
       H    17.78484   -9.50728  -14.37055
       O    18.27372   -9.15541  -13.61714
      H1    17.55385   -8.55001  -13.34357
       H    19.33084  -16.52163  -17.05796
       O    18.43441  -16.57385  -17.37088
      H1    18.22278  -17.43640  -17.25133
       H    19.23309   -9.51816  -17.46879
       O    18.67060   -9.33786  -18.25796
      H1    18.92962   -8.44652  -18.62908
       H    18.28836  -14.31149  -13.76319
       O    18.28112  -13.67172  -14.43706
      H1    18.09299  -12.92051  -13.88616
       H    15.97386   -9.88906  -10.95969
       O    15.27334  -10.20214  -11.52017
      H1    14.76855  -10.51687  -10.78711
       H    14.01420  -11.78778  -17.06141
       O    14.98380  -11.75512  -17.28683
      H1    15.01902  -12.55032  -17.87082
       H    15.65153   -7.04947  -11.29340
       O    14.95854   -7.28483  -10.66440
      H1    15.14059   -8.18945  -10.42341
       H    15.09322  -15.13748  -18.95680
       O    15.23103  -14.16404  -19.11676
      H1    15.94645  -14.04544  -19.76402
       H    16.83011  -13.47220  -15.50920
       O    15.95442  -13.80717  -15.83785
      H1    15.62230  -12.93670  -16.18694
       H    14.24277  -18.39490  -11.26939
       O    14.89232  -17.83469  -10.86332
      H1    15.07159  -18.32573  -10.03528

