90
frame 2 | Written by MDAnalysis XYZWriter (release 2.4.3)
       H   -16.88344   19.04932   13.11549
       O   -17.68459   18.52611   13.00460
      H1   -17.52306   17.77173   13.51348
       H   -15.07517   16.74254    8.68744
       O   -15.35708   17.58186    9.06028
      H1   -15.99282   17.91964    8.36242
       H   -17.20197   15.70337   17.87104
       O   -17.02266   16.59924   17.59373
      H1   -17.77714   17.12009   17.95421
       H   -13.85380   16.12638   17.31620
       O   -13.66967   15.23334   16.89835
      H1   -14.07329   14.60454   17.52185
       H   -16.29408   15.97147   14.66598
       O   -17.05943   16.56977   14.80231
      H1   -17.19890   16.63901   15.78760
       H   -14.47496   16.61047   13.19851
       O   -14.05974   17.41507   12.85531
      H1   -13.35984   17.60097   13.45442
       H   -14.72868   18.46120   17.33289
       O   -14.54667   17.55056   17.77216
      H1   -15.43066   17.13871   17.82589
       H   -11.69694   17.73726   19.70620
       O   -11.53794   18.69534   19.49085
      H1   -12.22475   18.87022   18.78599
       H   -10.91289   16.83436    9.39442
       O    -9.97989   16.62380    9.58757
      H1   -10.06343   15.66473    9.37597
       H   -17.63790   13.30214   18.44842
       O   -17.30971   14.02683   18.99386
      H1   -17.01801   13.58296   19.82679
       H   -17.55098   17.12943   11.42501
       O   -17.21092   16.35006   10.98665
      H1   -16.39661   16.61136   10.63179
       H   -11.67307   14.77100   12.22398
       O   -10.80584   15.07905   12.51786
      H1   -10.70921   15.79716   11.79891
       H   -13.75884   12.12254   19.00879
       O   -14.26016   12.86242   18.62576
      H1   -15.13822   12.49542   18.49325
       H   -17.08898   17.90893    5.54658
       O   -16.85207   18.02623    6.51493
      H1   -17.71295   18.48353    6.74984
       H   -11.72681   15.53437   16.64715
       O   -11.00153   16.14680   16.48569
      H1   -10.42963   15.69596   15.82785
       H   -19.13291   15.94773    8.16175
       O   -18.94744   16.77952    8.61075
      H1   -18.24235   16.53223    9.25442
       H   -18.04609   17.67622   19.88026
       O   -18.87556   17.79423   19.44990
      H1   -18.86410   18.79695   19.20273
       H   -13.11637   15.55141   10.84288
       O   -12.99724   16.39664   10.37665
      H1   -13.53811   16.95390   10.92280
       H   -16.43052   12.39841   13.62446
       O   -16.28726   12.74049   14.50791
      H1   -17.16714   12.95598   14.84970
       H   -17.92152   14.96597   11.08347
       O   -18.24662   14.07253   11.18270
      H1   -18.60124   13.78215   10.36478
       H   -16.76726   13.39251   11.16401
       O   -16.03235   12.68806   11.34164
      H1   -15.26393   13.28679   11.26583
       H   -14.08774   18.89861    9.57479
       O   -13.88922   19.86170    9.69715
      H1   -12.92878   19.72497   10.00759
       H   -19.03653   11.27296   14.30614
       O   -19.00272   12.01282   14.88109
      H1   -19.14265   12.71841   14.26913
       H   -18.86842   14.57267   13.00550
       O   -19.04341   14.73563   13.95609
      H1   -18.19635   15.19516   14.09513
       H   -17.65066   10.84739   17.75075
       O   -18.21318   11.59296   17.82006
      H1   -18.64285   11.68329   16.95110
       H   -14.55009   15.13245   15.30851
       O   -14.88804   15.09019   14.38502
      H1   -15.34437   14.24939   14.38031
       H   -14.00764   10.74516   11.46448
       O   -14.17240   10.85089   10.47559
      H1   -15.03277   11.36834   10.51623
       H   -19.35755   12.87634    7.89600
       O   -19.05702   13.03571    8.80956
      H1   -18.57349   12.20021    8.96686
       H   -11.42683   18.93167   15.07344
       O   -12.29810   18.46325   15.21972
      H1   -11.85907   17.60844   15.52377
       H   -12.99338   13.16088   11.71678
       O   -13.59893   13.89413   11.85214
      H1   -13.66021   13.83417   12.80605

