90
frame 1 | Written by MDAnalysis XYZWriter (release 2.4.3)
       H   -11.51582  -19.12224   -8.15629
       O   -11.87379  -18.99909   -9.05074
      H1   -11.64219  -19.89615   -9.38488
       H   -13.45837  -18.13340   -6.24218
       O   -13.95981  -17.42693   -5.70591
      H1   -13.29452  -17.13243   -4.99235
       H   -14.59620  -13.12053   -8.57003
       O   -15.45025  -13.09797   -8.09689
      H1   -15.45185  -14.08046   -7.95800
       H   -19.68320  -12.20792   -0.63952
       O   -19.15361  -12.98750   -0.92631
      H1   -19.13589  -12.80375   -1.89426
       H   -11.33722  -13.54866   -3.40380
       O   -11.53977  -14.18141   -4.05402
      H1   -10.79206  -14.80158   -3.95701
       H   -19.50673  -11.72539   -7.02987
       O   -18.64383  -11.56167   -6.54681
      H1   -18.18651  -12.41750   -6.71781
       H   -15.04449  -18.53985    3.45603
       O   -14.18323  -18.87122    3.82357
      H1   -14.38711  -19.23584    4.69595
       H   -16.24504  -12.43590   -1.21654
       O   -16.54893  -13.07010   -0.53475
      H1   -17.49609  -12.94329   -0.60734
       H   -19.31324  -13.61224   -4.19032
       O   -19.06405  -12.79644   -3.65097
      H1   -18.72139  -12.25339   -4.37351
       H   -18.60954  -15.01800   -6.37851
       O   -17.85365  -14.52107   -6.69545
      H1   -17.16897  -15.17763   -6.71253
       H   -14.13534  -14.22715    0.15122
       O   -13.86116  -13.77822   -0.68527
      H1   -14.81020  -13.54667   -0.85920
       H   -17.92631  -14.00518   -8.61776
       O   -17.75065  -13.26075   -9.21345
      H1   -16.91227  -12.95541   -8.74545
       H   -17.57391  -17.84348   -2.15576
       O   -17.99736  -17.83192   -3.03711
      H1   -17.93790  -18.72466   -3.34835
       H   -18.63588  -17.27689   -8.64782
       O   -18.14874  -18.12945   -8.59507
      H1   -17.65133  -17.95064   -7.77018
       H   -15.74715  -15.05979   -3.21576
       O   -15.18869  -15.72584   -2.76702
      H1   -14.52131  -15.22424   -2.25727
       H   -15.89961  -16.64264   -1.55949
       O   -16.40695  -17.07109   -0.83263
      H1   -16.96292  -16.29680   -0.61414
       H   -14.87932  -17.50056   -0.22288
       O   -13.90616  -17.85499   -0.30458
      H1   -13.86259  -18.18764   -1.28936
       H   -17.56661  -18.21646    2.21392
       O   -18.18023  -18.94170    2.22360
      H1   -17.77897  -19.53443    1.54536
       H   -12.58157  -17.11010    1.20849
       O   -11.72543  -17.11002    1.75865
      H1   -11.57973  -17.98048    2.03017
       H   -17.19043  -13.55083    4.89132
       O   -17.34656  -13.36501    3.89424
      H1   -17.72214  -14.06785    3.43166
       H   -18.76738  -14.69326    0.17680
       O   -18.56336  -15.59708    0.10187
      H1   -18.83360  -15.98728    0.91978
       H   -13.42279  -18.32057   -3.33581
       O   -13.73642  -19.06614   -2.81253
      H1   -14.63702  -19.22970   -3.17813
       H   -15.65477  -12.29630   -3.35020
       O   -15.27074  -11.63304   -2.76078
      H1   -14.37188  -11.62599   -3.10880
       H   -17.03982  -17.52058   -9.92475
       O   -16.39165  -16.88830  -10.29297
      H1   -16.98813  -16.21583  -10.74600
       H   -15.76224  -16.69109    3.76453
       O   -16.37834  -17.38275    3.43677
      H1   -16.65566  -17.84877    4.24220
       H   -18.04869  -16.25197    3.27100
       O   -18.90656  -15.86622    2.96695
      H1   -19.66608  -15.95163    3.54761
       H   -14.80343  -16.27654   -7.32141
       O   -15.50799  -15.88546   -7.82907
      H1   -15.56035  -16.47922   -8.57988
       H   -16.91275  -17.83890   -4.66523
       O   -16.82283  -17.42916   -5.51820
      H1   -15.86295  -17.22898   -5.55813
       H   -12.02680  -15.83726   -3.76262
       O   -12.24101  -16.75600   -3.54669
      H1   -11.40055  -17.18612   -3.28561
       H   -16.43590  -13.96207   -5.49404
       O   -15.85845  -13.56082   -4.81962
      H1   -15.37210  -12.98477   -5.41557

