90
frame 2 | Written by MDAnalysis XYZWriter (release 2.4.3)
       H    15.64153   16.71276   -1.69539
       O    15.50094   17.69081   -1.63829
      H1    16.50791   17.96498   -1.58517
       H     8.93100   15.51389   -4.59778
       O     9.63199   16.16198   -4.58297
      H1     9.29214   16.92373   -4.09675
       H    12.38733   15.05778    1.23907
       O    11.96923   14.92950    2.07808
      H1    11.68088   15.84703    2.25951
       H    14.69753   16.51117   -4.65578
       O    14.02868   17.13204   -4.26345
      H1    13.73393   16.68390   -3.44378
       H     7.04573   14.55910   -1.72232
       O     7.32159   13.59921   -1.67400
      H1     6.85938   13.20282   -2.37523
       H    12.02318   17.92540    1.96705
       O    11.42392   17.51488    2.63929
      H1    11.94819   17.50510    3.46517
       H    15.21606   18.02552    0.14955
       O    14.92773   18.18293    1.06103
      H1    15.45756   19.06697    1.17586
       H    13.80281   14.07541   -0.57610
       O    12.92158   14.27197   -0.33817
      H1    12.43451   13.55368   -0.75828
       H    12.11119   19.38277   -0.04515
       O    12.39795   18.47345    0.15572
      H1    13.39368   18.52936    0.37510
       H    10.93502   12.90545   -1.63159
       O    11.37951   12.13719   -1.14983
      H1    10.94468   12.28100   -0.27715
       H    18.35087   18.55520   -0.34117
       O    18.38013   17.91915   -1.11922
      H1    18.62057   17.05473   -0.65897
       H    11.78024   16.41860    5.64083
       O    12.23951   17.13206    5.21750
      H1    12.01379   17.86389    5.81737
       H    10.50107   15.75094   -0.36401
       O     9.83802   16.30719    0.08170
      H1    10.35880   17.12137    0.13232
       H     6.05138   17.84874    2.93345
       O     5.73606   18.64383    3.29926
      H1     6.01528   18.48312    4.27524
       H     9.59354   17.72756    3.15348
       O     8.83145   18.21076    3.60470
      H1     8.42214   18.72886    2.86135
       H     9.15256   14.09186   -2.29280
       O    10.11207   14.31843   -2.07889
      H1    10.09120   15.09363   -2.72169
       H    11.49798   19.12025    3.28497
       O    12.01347   19.90347    3.50562
      H1    12.66278   19.69793    4.18758
       H     5.74129   16.27060   -2.10773
       O     6.66941   16.59144   -2.06846
      H1     6.85338   16.92410   -2.99560
       H    16.75888   17.30978    3.75708
       O    16.83589   17.56361    4.70857
      H1    16.10170   17.08600    5.08515
       H     5.24835   18.67758   -0.86583
       O     5.51049   18.31334   -0.00124
      H1     6.03426   17.50012   -0.16007
       H     9.58241   12.54544    1.43020
       O    10.56659   12.49437    1.44550
      H1    10.82733   13.38010    1.64304
       H    11.08108   16.72889   -6.10073
       O    11.80915   17.10675   -6.73614
      H1    12.63521   17.13348   -6.23122
       H    14.08268   16.70488    5.59149
       O    14.71726   15.97420    5.79926
      H1    14.30197   15.35765    5.17294
       H     7.63149   16.08215    2.07338
       O     7.28892   15.74949    1.24510
      H1     8.12281   15.83682    0.79379
       H    16.25525   14.34318   -1.91783
       O    15.38712   14.57080   -1.65337
      H1    14.83450   14.26129   -2.45238
       H    10.60707   19.05521    7.26981
       O    11.62149   18.94190    7.23806
      H1    11.92686   19.84204    7.13047
       H    12.92943   13.31951    5.18985
       O    13.37068   13.99451    4.65597
      H1    12.72907   14.31835    3.98491
       H    12.55861   15.65571   -1.60093
       O    12.26331   16.48260   -2.09822
      H1    12.30760   17.14898   -1.39476
       H     9.25761   17.09606   -1.53101
       O     9.52022   17.50693   -2.36803
      H1    10.42384   17.12649   -2.51689
       H    17.00940   15.87072    2.18575
       O    16.99586   16.83202    2.17195
      H1    16.00943   16.97619    2.02351

