90
frame 2 | Written by MDAnalysis XYZWriter (release 2.4.3)
       H    -4.01183   -7.34440    4.94829
       O    -4.82742   -6.78175    4.98113
      H1    -4.86713   -6.39705    5.88472
       H   -11.20776   -2.85722   -0.54424
       O   -11.09264   -1.98883   -0.96224
      H1   -10.30180   -1.63739   -0.53717
       H   -10.24203   -2.06130    8.39707
       O   -10.88031   -1.94968    7.59708
      H1   -10.75586   -2.76758    7.08227
       H    -8.87077   -8.91552    2.48950
       O    -8.98452   -9.35348    3.35401
      H1    -9.12089   -8.56343    3.84210
       H   -13.84708   -4.24761    0.08578
       O   -12.94166   -4.42682   -0.23485
      H1   -12.56044   -5.04782    0.50270
       H   -12.72850   -7.02994    4.89125
       O   -12.91464   -6.17292    4.45759
      H1   -13.86379   -6.22435    4.24393
       H    -4.89730   -1.71128    2.51549
       O    -4.76625   -2.33324    1.78417
      H1    -5.53852   -2.16499    1.29398
       H    -6.68755   -8.28400    7.01260
       O    -7.42562   -7.64721    6.94227
      H1    -8.08046   -7.88956    7.62016
       H   -12.09446   -6.47993    7.49848
       O   -11.14276   -6.39751    7.32294
      H1   -11.02584   -5.44141    7.11779
       H    -7.46682   -6.63488   -0.88777
       O    -8.23713   -6.82637   -0.35366
      H1    -8.14387   -6.17502    0.36191
       H    -8.32106   -7.17640    5.38990
       O    -9.17800   -7.11492    4.96918
      H1    -9.83428   -7.10978    5.63184
       H    -9.07752   -2.68625    3.83615
       O    -8.43703   -2.20293    3.29374
      H1    -8.05751   -2.93246    2.75524
       H   -12.83925    0.15648    0.15387
       O   -12.92105   -0.65672    0.64307
      H1   -12.32220   -1.15903    0.05925
       H    -9.92096   -1.10211    1.59717
       O    -9.51874   -0.67611    0.79345
      H1    -8.57666   -0.64962    0.98648
       H    -4.37551   -4.25043    2.42300
       O    -4.72814   -5.14843    2.19413
      H1    -4.33482   -5.63763    2.95167
       H    -6.94557   -3.39402    0.40199
       O    -6.94722   -2.44941    0.28398
      H1    -6.49514   -2.33612   -0.52812
       H   -10.95646   -5.68279   -1.90091
       O   -10.03856   -5.68276   -1.99457
      H1    -9.69400   -6.24331   -1.25262
       H    -6.84812   -5.08719    2.07205
       O    -7.70919   -4.97710    1.57562
      H1    -8.34120   -5.00814    2.30872
       H   -11.12817   -9.95819    0.84982
       O   -11.41636   -9.06924    1.06360
      H1   -12.09317   -8.96160    0.37118
       H   -13.69400   -3.54802    6.25560
       O   -13.14914   -4.26427    6.65918
      H1   -12.91488   -4.96219    6.02255
       H    -7.17695   -8.61617    0.27327
       O    -7.57812   -9.48495    0.44996
      H1    -6.80737  -10.00885    0.23231
       H   -12.07656   -2.36399    2.85910
       O   -11.41388   -1.76099    2.60264
      H1   -11.92855   -1.24131    1.93158
       H   -10.45264   -4.40506    5.29373
       O   -10.02860   -4.01968    6.03092
      H1    -9.15087   -4.43405    6.01056
       H   -11.79108   -7.28295    1.40806
       O   -11.91227   -6.35726    1.62756
      H1   -12.50434   -6.43346    2.39900
       H    -7.28736   -4.46005    8.18199
       O    -7.53964   -4.69680    7.24616
      H1    -7.69014   -5.64629    7.31190
       H    -5.10341   -5.88316    7.84080
       O    -4.84715   -5.25335    7.15923
      H1    -5.73607   -4.87851    6.98076
       H   -12.43867   -9.01811    6.50634
       O   -12.87679   -8.85549    5.63034
      H1   -13.49990   -9.59024    5.53810
       H   -14.13949   -2.74112    4.04051
       O   -13.90633   -3.02220    3.19289
      H1   -14.47720   -3.82923    2.97957
       H   -10.57952   -5.16792    2.75917
       O    -9.79798   -4.88212    3.22536
      H1    -9.51868   -5.62667    3.79787
       H    -9.49444    0.48144    4.06996
       O    -8.63005    0.15313    4.39466
      H1    -8.62346   -0.72869    4.00415

