90
frame 2 | Written by MDAnalysis XYZWriter (release 2.4.3)
       H    -2.26704    0.51637  -13.50952
       O    -1.62799   -0.03693  -13.03136
      H1    -2.22298   -0.38623  -12.33384
       H    -2.02351   -3.04744  -13.39237
       O    -2.16923   -2.53032  -14.19357
      H1    -1.88408   -1.65813  -13.98435
       H    -3.78339    2.01757  -18.21944
       O    -2.96229    1.94699  -17.63563
      H1    -2.58298    1.18691  -18.06405
       H    -6.26802    2.22942  -17.95029
       O    -6.96587    2.23517  -17.21436
      H1    -7.17787    1.30389  -17.11068
       H    -4.40670    5.72940  -18.30941
       O    -3.64799    5.39256  -18.79906
      H1    -3.18811    4.90921  -18.05689
       H    -3.22123    4.07130  -12.46419
       O    -3.92945    3.82807  -13.12475
      H1    -4.40015    3.21523  -12.56201
       H    -4.93576    1.55996  -14.67442
       O    -5.91147    1.47914  -14.72870
      H1    -6.05539    1.83955  -15.64864
       H    -6.60360    5.81030  -15.31336
       O    -7.07691    6.48042  -14.77713
      H1    -7.19273    5.94977  -13.93789
       H    -5.44129   -1.53517  -14.28670
       O    -5.46527   -1.04428  -15.13892
      H1    -5.67217   -0.16122  -14.74969
       H    -3.90489    7.40001  -15.41155
       O    -4.62324    8.02501  -15.52475
      H1    -5.42646    7.52385  -15.27557
       H    -4.41036   -0.70545  -16.75276
       O    -4.41314   -0.79263  -17.73610
      H1    -5.31126   -1.17675  -17.89160
       H     1.19131    2.23463  -13.31543
       O     1.82375    2.06973  -14.01279
      H1     2.00231    3.00255  -14.32684
       H    -0.57809    1.36277  -12.32528
       O    -0.03984    2.10870  -12.16376
      H1    -0.65601    2.67744  -11.64515
       H     0.30623    4.28974  -19.37749
       O    -0.46155    4.47871  -18.82065
      H1    -0.41903    3.71300  -18.23544
       H     2.42158    0.36852  -16.32884
       O     3.30106    0.42884  -16.54176
      H1     3.68904    0.70342  -15.72640
       H    -1.13461   -2.69110  -17.34816
       O    -1.25142   -3.43716  -16.70680
      H1    -1.45627   -2.96633  -15.88688
       H    -0.29776    0.13981  -19.23508
       O    -0.90387   -0.03219  -18.48236
      H1    -1.26151   -0.87036  -18.72034
       H    -3.06999    1.42454  -15.70127
       O    -3.24022    1.44341  -14.71138
      H1    -3.03686    2.40320  -14.46306
       H    -1.41892    7.61956  -18.06244
       O    -1.79161    8.03234  -17.25279
      H1    -1.83700    8.98441  -17.41455
       H     1.17671    5.32679  -17.47170
       O     1.63988    5.23205  -16.64632
      H1     2.21399    5.97152  -16.47056
       H    -2.79859   -3.72334  -17.42607
       O    -3.53100   -3.82849  -18.05377
      H1    -3.98426   -2.96835  -18.05178
       H    -6.60659    5.85275  -17.97939
       O    -5.90858    6.33924  -17.51192
      H1    -6.06082    7.18127  -17.93419
       H    -7.89760    3.66511  -17.69947
       O    -7.99891    4.46838  -18.21780
      H1    -8.85049    4.82763  -18.02031
       H    -8.94115    0.19008  -15.24720
       O    -8.80320   -0.00393  -16.17913
      H1    -7.94266   -0.49351  -16.22309
       H     0.37518    4.70527  -15.39967
       O    -0.41294    4.86474  -14.87245
      H1    -0.34841    5.80509  -14.77308
       H    -0.69653    3.17759  -15.87428
       O    -0.38197    2.81561  -16.72492
      H1    -1.13683    2.33024  -17.13094
       H    -6.97245   -2.77248  -18.15816
       O    -6.79018   -2.02286  -18.73265
      H1    -6.47054   -2.44150  -19.53251
       H     0.18602    0.73300  -15.82745
       O     0.60406   -0.01103  -16.29146
      H1     0.15502   -0.10122  -17.12973
       H    -3.78340    4.89962  -14.69627
       O    -3.48228    5.56854  -15.36244
      H1    -2.51549    5.53264  -15.34741
       H     1.57717   -2.75810  -15.37324
       O     1.68173   -2.03606  -14.65683
      H1     1.24290   -1.25713  -15.08084

