90
frame 1 | Written by MDAnalysis XYZWriter (release 2.4.3)
       H    -5.31940    5.02210   16.68528
       O    -5.25505    5.38606   17.62319
      H1    -4.37154    5.15602   17.89411
       H    -2.29154    4.07743   18.60896
       O    -2.03257    4.35775   17.74207
      H1    -1.25779    3.82356   17.64769
       H    -9.34156    6.79363   13.86788
       O    -9.39164    7.73488   13.54046
      H1    -9.29787    8.11198   14.43850
       H     0.29176    3.07134   16.19155
       O    -0.29409    2.39208   16.58231
      H1    -0.74621    1.99771   15.85607
       H    -3.54159    7.71536   18.49319
       O    -3.01178    7.55283   19.34075
      H1    -3.12421    6.61098   19.58745
       H    -2.70526    0.43807   16.71000
       O    -1.92668   -0.09599   16.91138
      H1    -1.77871    0.10809   17.86339
       H   -10.24427    4.40388   14.38683
       O   -10.33191    5.23850   13.91253
      H1   -10.87862    5.80293   14.49050
       H    -9.79440    4.72309   17.95446
       O   -10.82273    4.79433   18.12852
      H1   -10.93616    4.48519   19.04336
       H   -10.08735    2.22202   16.19625
       O   -10.57283    3.07511   15.99023
      H1   -10.61677    3.56029   16.83287
       H    -4.06697    3.05271   13.29953
       O    -4.04694    2.10387   13.60514
      H1    -3.11081    1.90125   13.33492
       H    -8.82261    2.40085   13.97435
       O    -8.01307    2.77989   13.57942
      H1    -7.40752    2.10905   14.00865
       H    -6.58027   10.91836   14.98061
       O    -6.40502   10.20746   15.61007
      H1    -6.23732    9.41907   15.05061
       H    -6.48062    6.98446   13.90682
       O    -6.49987    7.60581   14.68353
      H1    -7.27691    7.27625   15.17749
       H    -8.24013   10.02667   18.21432
       O    -8.33371    9.59442   17.36326
      H1    -7.71059   10.12142   16.84121
       H     0.17996    7.07254   15.93058
       O    -0.12825    7.32890   15.07310
      H1    -0.98054    6.90978   15.22746
       H   -10.05589    7.62261   19.01372
       O    -9.84979    8.21538   19.75004
      H1    -8.87451    8.02372   19.80603
       H    -9.03138    6.40817   12.15833
       O    -8.61488    5.97971   11.37374
      H1    -9.00543    5.11977   11.46435
       H    -0.69532    5.95665   17.84528
       O    -0.30088    6.81116   17.79621
      H1     0.55481    6.55285   18.15393
       H    -8.41203    0.47309   15.79935
       O    -9.24613    0.11998   16.13302
      H1    -9.81014    0.52328   15.46188
       H    -5.32682    4.70714   14.40293
       O    -5.65333    4.10987   15.04071
      H1    -6.48799    3.85721   14.63731
       H    -5.59250    0.95170   12.57436
       O    -6.12012    0.37354   12.00072
      H1    -6.11554    0.88874   11.17120
       H    -7.91197    4.48923   18.93809
       O    -7.90247    4.45153   17.95348
      H1    -6.93386    4.55185   17.87280
       H    -3.42794    5.56365   13.52973
       O    -3.86818    4.89781   13.01651
      H1    -4.61895    5.35735   12.65872
       H    -4.23348    0.71518   15.48978
       O    -4.37648    1.06588   16.38269
      H1    -4.59902    1.96837   16.08051
       H    -2.38470    5.68656   15.77914
       O    -2.53108    6.33569   15.10390
      H1    -2.96112    7.10387   15.51549
       H    -7.39533    0.86274   18.28717
       O    -6.94155    1.78407   18.13860
      H1    -7.65757    2.33744   17.79785
       H    -5.93576    7.18332   11.84369
       O    -6.05270    6.27990   12.20907
      H1    -6.96420    6.13956   11.90192
       H    -6.32147    1.23009   16.04045
       O    -6.83837    1.10449   15.18474
      H1    -6.48133    0.24138   14.99088
       H    -3.34678    9.37643   16.38679
       O    -3.57915    8.56188   16.71163
      H1    -4.52961    8.57595   16.51268
       H    -7.98666    6.18168   17.19469
       O    -8.57552    6.82879   16.72843
      H1    -8.28579    7.66896   17.12817

