90
frame 2 | Written by MDAnalysis XYZWriter (release 2.4.3)
       H    16.94532   12.89255    5.06842
       O    17.14651   13.68665    4.55603
      H1    17.49059   14.32478    5.21991
       H    14.22059   11.22037    5.69331
       O    14.93480   11.77291    5.91583
      H1    14.71459   12.63279    5.44514
       H    18.37212   11.41415    2.69878
       O    17.44036   11.10918    2.61852
      H1    17.42196   10.17562    3.05796
       H    16.60139    9.84861    7.34894
       O    16.41002    9.24024    6.61536
      H1    16.40968    8.39762    7.04326
       H    16.26332   10.62432    0.05778
       O    17.21141   10.47361    0.07482
      H1    17.40463   10.79196    0.98075
       H    16.92884   13.70103    1.46873
       O    17.63043   14.17321    1.94408
      H1    17.50717   13.92305    2.86890
       H    16.97583    8.85575   -0.63323
       O    16.57754    7.94020   -0.81306
      H1    16.74545    7.55061    0.07283
       H    17.16759    7.25701    2.75964
       O    17.46251    7.00064    1.83381
      H1    17.20440    6.04841    1.92357
       H    16.59943    7.78502   -3.60976
       O    16.29510    8.43710   -4.23092
      H1    15.33376    8.29694   -4.15658
       H    13.80281   14.07541   -0.57610
       O    12.92158   14.27197   -0.33817
      H1    12.43451   13.55368   -0.75828
       H    19.88617   15.25609    0.48858
       O    19.66549   16.19081    0.59560
      H1    18.96918   16.21381    1.28356
       H    13.98636   12.42447    1.99763
       O    14.89753   12.34067    1.63869
      H1    15.38459   11.87665    2.37257
       H    13.88572    9.33995   -3.96810
       O    13.66722    8.48626   -3.65111
      H1    13.43408    8.49189   -2.70408
       H    18.77839    7.11376    5.00662
       O    19.50395    6.53241    5.30660
      H1    19.03132    5.68419    5.18145
       H    14.52186   11.44676   -0.19440
       O    14.43042   10.80564   -0.98293
      H1    13.51864   10.59084   -0.96868
       H    11.33823    8.59444    1.73388
       O    12.15383    9.08685    1.48123
      H1    12.21260    9.12674    0.48934
       H    16.44967   10.53775   -3.50278
       O    16.43820   11.28582   -2.84988
      H1    15.52321   11.36833   -2.42701
       H    14.13244    6.63737    2.20096
       O    13.62694    6.73069    1.40658
      H1    13.41881    7.70413    1.49920
       H    13.13963    8.47016    5.73779
       O    13.65586    9.24104    5.84501
      H1    14.54775    8.88842    5.90948
       H    16.97173   13.73659   -3.32468
       O    17.68511   14.01902   -2.70141
      H1    18.11033   13.14358   -2.57656
       H    14.97510    7.08584   -1.26035
       O    14.16351    6.59111   -1.12919
      H1    14.27267    6.52656   -0.13712
       H    11.82419   11.84335    2.46918
       O    12.55549   11.51496    2.98850
      H1    12.64584   10.61885    2.66847
       H    19.77149   10.99249   -1.13010
       O    19.20404   11.59954   -1.61461
      H1    18.38837   11.13414   -1.48801
       H    11.41112    8.81690   -1.53711
       O    12.30309    8.49420   -1.33116
      H1    12.36573    7.56336   -1.63349
       H    15.66712   12.62625   -4.08754
       O    15.81251   13.47235   -4.45317
      H1    15.03014   13.51348   -5.08510
       H    16.25525   14.34318   -1.91783
       O    15.38712   14.57080   -1.65337
      H1    14.83450   14.26129   -2.45238
       H    16.40115   12.24663    6.93631
       O    17.10494   12.54257    7.58179
      H1    16.79970   13.45496    7.86503
       H    18.59319    7.29836   -3.19780
       O    17.87449    6.85218   -2.73444
      H1    17.67255    7.45126   -2.00332
       H    17.00940   15.87072    2.18575
       O    16.99586   16.83202    2.17195
      H1    16.00943   16.97619    2.02351
       H    17.17493    9.16584    5.06538
       O    17.53165    8.75543    4.21611
      H1    18.47355    9.05413    4.21956

