90
frame 2 | Written by MDAnalysis XYZWriter (release 2.4.3)
       H    -2.44007    4.51202    4.36316
       O    -2.70177    4.63824    3.44592
      H1    -3.48145    5.21825    3.54357
       H    -5.76777    7.60594   -2.17054
       O    -6.63644    7.65948   -1.71104
      H1    -6.35943    7.79608   -0.77576
       H    -4.03269    4.57908   -3.66731
       O    -3.41586    5.18149   -4.11719
      H1    -3.74649    5.13243   -5.03810
       H    -3.04480    0.25837   -2.86866
       O    -3.71907    0.20973   -2.14838
      H1    -3.20839    0.35080   -1.32314
       H    -6.07568    4.38746   -2.40360
       O    -5.79469    3.67038   -2.96593
      H1    -6.21551    3.91832   -3.79910
       H    -4.01214    7.90803    3.12428
       O    -4.33248    8.66632    2.62292
      H1    -3.85698    9.36957    3.08304
       H    -7.51145    2.78873    6.05783
       O    -8.05073    2.11756    6.52750
      H1    -8.29306    1.52142    5.80139
       H    -7.35681    4.72664   -0.66665
       O    -6.46993    5.13239   -0.76613
      H1    -6.77636    5.97120   -1.25064
       H    -7.86879    4.61735    5.10449
       O    -7.05502    4.50931    5.64402
      H1    -6.40997    4.86504    5.05375
       H    -5.45238    6.81382    4.23232
       O    -5.06420    5.91736    4.04261
      H1    -5.24213    5.73739    3.08998
       H    -5.75220    8.57016    1.26120
       O    -6.47011    8.80538    0.66981
      H1    -7.17448    8.20809    0.88065
       H   -11.11640    6.07906    2.85293
       O   -10.55884    5.47189    2.29942
      H1   -11.33016    5.07022    1.79660
       H    -6.49627    2.44542    3.35114
       O    -7.13441    1.95963    2.77747
      H1    -7.66576    1.43757    3.39487
       H    -1.47898    5.88117    0.41455
       O    -1.91388    6.15829   -0.45743
      H1    -1.81843    7.11253   -0.57817
       H    -7.87518    9.03034    4.17615
       O    -8.84090    9.13502    4.08756
      H1    -8.93111   10.10062    3.95274
       H    -6.09768    9.03160    5.33256
       O    -6.23262    8.50777    4.52474
      H1    -6.13989    9.20407    3.83605
       H    -8.80088    6.22353    2.15333
       O    -8.10335    6.64979    1.65092
      H1    -7.86074    6.02490    1.00152
       H    -1.96085    3.74474    6.34314
       O    -1.55893    3.33790    5.55110
      H1    -0.65333    3.67199    5.67965
       H     0.18125    5.77866    2.48891
       O    -0.65870    6.09994    2.16145
      H1    -1.33678    5.58828    2.65952
       H    -9.49167    1.03219    1.28139
       O    -9.84302    1.85988    1.68204
      H1    -9.02011    2.34298    1.39054
       H    -6.94521    2.25595   -2.53730
       O    -7.45996    1.63900   -1.97182
      H1    -6.82482    1.48528   -1.24743
       H    -3.54379    3.25673   -0.97276
       O    -3.31066    3.41398   -0.03569
      H1    -2.77244    4.24652   -0.11873
       H    -2.11691    1.00915    3.52135
       O    -2.88960    0.44445    3.30173
      H1    -3.53138    1.09740    3.78645
       H    -8.41997    2.93737   -1.08349
       O    -8.74517    3.62943   -0.44985
      H1    -9.29543    4.21681   -0.98895
       H   -10.45756    3.56393    4.50562
       O    -9.85612    4.03304    5.09199
      H1    -9.94454    4.94023    4.93108
       H    -5.01440    0.76952    0.26230
       O    -5.94923    1.03929    0.21969
      H1    -6.15443    1.17149    1.14524
       H    -3.21677    0.74238    1.34490
       O    -3.14643    0.84838    0.42466
      H1    -2.91399    1.81757    0.35583
       H   -10.80101    5.83395   -1.89446
       O    -9.83328    5.74178   -2.14380
      H1    -9.58813    6.66253   -2.13724
       H    -5.86327    4.39235    0.61325
       O    -5.57136    4.41111    1.52380
      H1    -4.67903    4.03383    1.45122
       H    -4.93531    2.57963    5.33928
       O    -4.71492    2.50063    4.42469
      H1    -4.10712    3.26858    4.29366

