90
frame 2 | Written by MDAnalysis XYZWriter (release 2.4.3)
       H    10.14423   12.83195  -17.41519
       O    10.43780   13.12421  -16.55968
      H1    11.30406   12.60867  -16.50721
       H     7.48414   11.58608  -16.95997
       O     6.93069   10.92543  -17.47981
      H1     6.07256   11.37418  -17.69573
       H     7.09993   10.53372  -13.76159
       O     6.64859   11.03114  -14.45504
      H1     6.97205   10.61155  -15.25051
       H     8.19788   16.27496  -16.15209
       O     8.70995   16.42939  -15.38052
      H1     8.52758   17.38957  -15.20968
       H    10.34607   16.13980  -16.19924
       O    10.88543   15.72089  -16.90126
      H1    10.76631   14.74862  -16.60164
       H    11.37267    9.01904  -12.48446
       O    10.75876    8.32267  -12.76650
      H1    11.30984    7.55171  -13.16880
       H     7.45266   14.78804  -19.57645
       O     7.10919   15.58020  -19.01484
      H1     7.89801   16.14526  -19.12132
       H    12.60116   15.91401  -16.41617
       O    13.43688   16.14631  -15.93615
      H1    14.02724   15.46620  -16.26183
       H    10.56128    9.76822  -17.23631
       O    10.61505    9.37992  -18.11818
      H1    10.46540   10.19602  -18.67537
       H    11.98634   15.09794  -12.36766
       O    11.31178   14.43442  -12.04234
      H1    10.40128   14.81338  -12.16026
       H     7.65763   12.56428  -15.17649
       O     7.91334   12.99461  -16.02284
      H1     8.90871   13.03951  -15.96162
       H     9.45612    7.67097  -16.31169
       O     8.83615    7.48517  -17.04259
      H1     9.11269    8.17567  -17.70895
       H     3.14948   11.71297  -17.07747
       O     2.62440   11.66940  -16.26995
      H1     1.95743   10.95770  -16.39187
       H    13.78072   12.98457  -17.05274
       O    14.42668   13.74521  -17.12718
      H1    14.68215   13.69288  -18.07876
       H    12.52233   16.31360  -14.55833
       O    12.20689   16.45949  -13.68390
      H1    11.73622   17.30534  -13.75221
       H     8.84831   19.22372  -14.02630
       O     8.08666   18.76335  -14.43014
      H1     8.06631   19.25931  -15.26277
       H     9.94665   16.30297  -18.25224
       O     9.45013   16.90353  -18.83720
      H1     9.95503   16.80059  -19.62231
       H    10.52035    9.04028  -14.72903
       O    10.17482    9.60964  -15.48625
      H1    10.25461   10.51659  -15.19270
       H    12.29922    8.90933  -17.53467
       O    13.24484    9.12942  -17.57171
      H1    13.74470    8.33022  -17.34682
       H     4.58734   13.46326  -18.48392
       O     4.93458   12.80563  -17.81118
      H1     5.40407   13.47147  -17.23378
       H     9.81008   12.26340  -11.58105
       O    10.19329   11.51709  -11.05715
      H1     9.82934   11.77857  -10.21277
       H     9.21051   15.87882  -13.43309
       O     9.04511   15.38965  -12.60608
      H1     8.11857   15.23508  -12.58603
       H     3.78168   14.66748  -15.51628
       O     3.10456   15.29090  -15.82847
      H1     3.48272   16.19594  -15.61903
       H     5.52113   16.93907  -15.33599
       O     4.84803   17.38979  -14.83534
      H1     5.40284   18.06975  -14.37229
       H     4.71454   14.03958  -12.75176
       O     5.23364   14.01492  -11.97212
      H1     5.32741   14.97225  -11.75001
       H    12.32785   11.34164  -12.87510
       O    12.35036   10.51724  -12.30972
      H1    11.56473   10.72160  -11.67727
       H     6.80263   15.33745  -17.41834
       O     6.38920   15.31568  -16.50167
      H1     6.82701   14.53153  -16.11216
       H    12.86339   10.82815  -16.93738
       O    12.65162   11.75280  -17.27670
      H1    12.83440   11.71100  -18.25702
       H     3.91998   12.52717  -15.40238
       O     4.37281   13.09413  -14.77447
      H1     5.06052   12.46334  -14.51574
       H    13.11289   12.93155  -14.28560
       O    12.20133   12.81060  -14.55619
      H1    11.79192   13.51341  -13.99197

