90
frame 2 | Written by MDAnalysis XYZWriter (release 2.4.3)
       H   -10.75386   -5.83236  -19.49693
       O   -11.08245   -6.57651  -19.01913
      H1   -11.00471   -7.26137  -19.66804
       H   -15.72472   -0.72581  -17.22510
       O   -15.78269   -0.26244  -18.07837
      H1   -16.63126   -0.61728  -18.35137
       H   -17.19128   -3.75196  -14.90789
       O   -16.41908   -3.86499  -15.51116
      H1   -16.75366   -3.69753  -16.37922
       H   -11.59015   -2.07310  -16.50538
       O   -12.18992   -1.34461  -16.58961
      H1   -12.89133   -1.59808  -15.90376
       H    -9.90007   -9.28512  -15.68756
       O    -9.31641   -8.64952  -15.43676
      H1    -8.77146   -9.01870  -14.73195
       H    -8.76151   -5.69019  -12.23451
       O    -9.26533   -5.96162  -13.00306
      H1    -9.45518   -5.12249  -13.53042
       H   -11.21998   -5.96153  -12.28395
       O   -11.80069   -5.66581  -11.54337
      H1   -12.58504   -6.15104  -11.75042
       H   -15.24786   -2.96562  -19.02111
       O   -15.92559   -3.64900  -18.87218
      H1   -15.32635   -4.48107  -18.85207
       H   -17.80897   -7.06146  -18.24904
       O   -17.74909   -6.55679  -17.43298
      H1   -17.24272   -7.15763  -16.83379
       H    -8.57430   -2.32014  -13.65930
       O    -8.22067   -1.58281  -13.21904
      H1    -7.49304   -1.96447  -12.73180
       H   -13.96098   -2.15462  -19.73756
       O   -13.36225   -2.29539  -19.00217
      H1   -13.52857   -1.57329  -18.43927
       H   -12.56840   -1.91913  -13.43906
       O   -12.63663   -0.97668  -13.45549
      H1   -11.69069   -0.69785  -13.56723
       H   -10.70663   -3.40898  -14.01965
       O    -9.79160   -3.62701  -14.23965
      H1    -9.58472   -3.39896  -15.14108
       H   -12.75031   -9.26437  -13.77668
       O   -12.45229   -9.05069  -14.65700
      H1   -11.51354   -9.24230  -14.60463
       H   -17.00385   -9.36059  -19.50286
       O   -17.13695   -8.40297  -19.64884
      H1   -16.29763   -8.05261  -19.38652
       H   -11.42099    0.16527  -17.01289
       O   -11.14234    0.87427  -17.62846
      H1   -10.25730    1.04963  -17.35442
       H   -15.52257   -2.99001  -13.25696
       O   -15.42852   -3.91726  -12.99333
      H1   -14.89985   -4.36586  -13.68912
       H    -9.50080   -7.05281  -18.08526
       O    -8.60139   -7.45358  -17.94725
      H1    -8.81100   -7.75022  -17.01756
       H   -14.34734   -9.16106  -17.62158
       O   -14.48707   -9.95561  -18.11601
      H1   -14.08496  -10.66269  -17.58947
       H    -9.41518   -1.57047  -17.14763
       O    -9.59123   -2.53563  -17.15537
      H1    -9.61788   -2.71738  -18.10285
       H   -18.26417   -4.21655  -18.17242
       O   -18.54098   -3.37900  -17.70507
      H1   -19.09992   -3.74574  -17.01418
       H   -16.38861   -8.73205  -16.08221
       O   -17.02955   -9.41801  -16.31067
      H1   -16.57076   -9.87056  -17.04587
       H   -12.98673   -4.06710  -12.85176
       O   -12.52082   -3.56569  -13.51536
      H1   -12.49979   -4.22906  -14.23463
       H   -15.43336   -6.31447  -15.18496
       O   -16.05631   -7.10120  -15.15466
      H1   -15.64407   -7.58490  -14.44631
       H   -15.79613   -6.58976  -17.98882
       O   -15.37393   -6.62669  -18.83348
      H1   -14.41174   -6.90705  -18.66243
       H   -13.63504   -4.74976  -15.77662
       O   -13.92711   -5.35662  -15.06355
      H1   -13.51385   -6.19417  -15.44805
       H   -12.73146   -5.06936  -17.90233
       O   -12.56854   -4.42845  -17.22824
      H1   -12.78749   -3.63821  -17.76145
       H    -6.74304   -4.88481  -16.67671
       O    -6.50673   -4.41965  -17.47125
      H1    -5.52474   -4.33091  -17.35981
       H   -15.31394   -2.47832  -15.67452
       O   -14.77721   -1.65949  -15.73074
      H1   -14.85443   -1.22074  -14.88854
       H   -12.64981   -7.89483  -16.24355
       O   -12.92577   -7.28694  -16.96471
      H1   -12.04313   -7.10784  -17.22367

