90
frame 1 | Written by MDAnalysis XYZWriter (release 2.4.3)
       H    14.97653    5.33088    4.21929
       O    14.56559    6.15204    4.43977
      H1    13.63250    5.83552    4.36491
       H    17.42886   11.48516    2.18215
       O    16.73045   10.76852    2.32649
      H1    17.11543   10.16411    2.98786
       H    18.07727    8.24749    7.01513
       O    17.23438    8.64159    6.66240
      H1    16.61159    7.93653    6.90709
       H    14.96625    3.36202   -1.05650
       O    15.50315    3.21706   -0.26678
      H1    16.01829    2.39349   -0.48462
       H    15.90914   11.04883   -0.72643
       O    16.70141   10.48815   -0.65953
      H1    16.95160   10.37515    0.30085
       H    16.83386    8.47432   -1.25782
       O    17.03942    7.56342   -1.15877
      H1    17.51491    7.51909   -0.33890
       H    17.47295    7.03543    2.58912
       O    17.28519    6.47549    1.86214
      H1    16.26402    6.49479    1.84638
       H    16.87703    8.12573   -4.21123
       O    16.32581    8.89607   -4.53822
      H1    15.43902    8.52396   -4.47289
       H    13.68646    5.27158   -1.93637
       O    13.87089    4.43093   -2.37729
      H1    12.95892    4.31234   -2.73505
       H    15.57583   -0.53223   -0.64455
       O    16.04444   -0.57579    0.18567
      H1    16.68227    0.21823    0.08008
       H    14.64338    0.94266    0.69742
       O    13.95999    1.45178    1.14302
      H1    14.13532    2.35606    0.76655
       H    19.17813    6.97835    4.44530
       O    19.65281    6.19873    4.69195
      H1    18.95727    5.59137    4.98713
       H    16.09010    3.82459    1.78164
       O    15.60651    3.93389    2.56831
      H1    15.53631    3.09705    3.04256
       H    12.22969    8.49111    1.78326
       O    13.13858    8.83022    1.87162
      H1    13.35010    9.04173    0.93367
       H    17.23825    5.23176   -3.80376
       O    16.81917    4.38936   -3.53956
      H1    16.22008    4.70222   -2.84650
       H    14.76839    5.59880    2.02457
       O    14.57329    6.41918    1.46555
      H1    14.26151    7.07807    2.11541
       H    18.36229   -0.69776    2.81788
       O    19.21890   -0.92915    2.43548
      H1    19.80851   -0.25997    2.91875
       H    17.53988    3.83466    5.60089
       O    17.36095    4.64227    5.10140
      H1    17.46526    4.24344    4.20682
       H    14.99922    6.85348   -1.21833
       O    14.06614    6.75931   -1.07179
      H1    14.03917    6.63896   -0.08639
       H    19.31777    3.07901    3.09611
       O    18.46540    2.68380    3.18078
      H1    18.63000    2.11126    3.94874
       H    11.69504    4.41902    2.13147
       O    11.67996    5.27241    1.65907
      H1    12.63882    5.45653    1.76936
       H    14.72254    6.33851    6.15441
       O    15.01022    6.56392    7.07740
      H1    14.21406    6.60825    7.58952
       H    19.74799   10.50103   -1.05889
       O    19.28389   11.27289   -1.46913
      H1    18.31747   10.95291   -1.34282
       H    12.12564    9.02323   -1.08869
       O    13.06210    9.19375   -0.93217
      H1    13.44051    8.30179   -0.90129
       H    17.89201    3.75221   -1.93757
       O    18.53605    3.81678   -1.24231
      H1    18.60817    4.75658   -0.98221
       H    19.97740    4.89437    0.96024
       O    19.48394    5.70154    0.58140
      H1    18.66817    5.65627    1.15819
       H    14.64945    1.64305    5.22098
       O    15.47113    1.61077    4.77335
      H1    16.10472    1.66433    5.52654
       H    18.88890    7.50049   -3.53625
       O    18.06067    6.94776   -3.51019
      H1    17.83268    7.00701   -2.53196
       H    17.51557    8.90752    4.73898
       O    17.90177    8.75909    3.85334
      H1    18.80331    9.14301    3.91669
       H    17.74555    1.83239    1.34402
       O    17.58814    1.63349    0.38631
      H1    18.03420    2.38272   -0.03527

