90
frame 3 | Written by MDAnalysis XYZWriter (release 2.4.3)
       H    -5.04744    2.77207   -2.31479
       O    -4.49627    2.60335   -3.11096
      H1    -5.29594    2.52689   -3.69816
       H    -7.00763    5.69857   -6.53456
       O    -6.59677    5.06809   -5.93749
      H1    -7.36287    4.71533   -5.48758
       H    -7.35112    6.19189   -8.77968
       O    -7.84261    6.35792   -7.98377
      H1    -8.76382    6.13446   -8.10239
       H   -14.22267    2.10581   -5.59909
       O   -13.42593    1.67501   -5.23481
      H1   -12.86867    1.48554   -5.95055
       H   -10.42542    5.50948   -6.99642
       O   -10.44043    5.33742   -7.97475
      H1   -10.05250    4.44858   -8.14762
       H    -8.04641    1.96662   -4.34045
       O    -7.16080    2.13087   -3.99462
      H1    -7.13831    1.57227   -3.22569
       H   -11.00766    5.71975   -4.78827
       O   -10.36606    6.09680   -5.38675
      H1   -10.50800    7.04780   -5.28350
       H   -13.58817    5.27763   -2.18865
       O   -13.80711    5.79417   -2.98590
      H1   -13.80533    6.74509   -2.74844
       H    -9.20332   -1.42752   -8.70592
       O    -9.36814   -1.96777   -9.45580
      H1    -8.61574   -1.96609  -10.05896
       H   -10.16532    2.71190   -5.80155
       O    -9.73644    2.59338   -4.90098
      H1   -10.40237    2.94977   -4.31994
       H    -6.44378    1.62525   -7.89247
       O    -6.28133    0.71458   -7.61124
      H1    -5.83524    0.83842   -6.74455
       H   -13.78514    2.90549   -9.29317
       O   -13.04861    3.51016   -9.28962
      H1   -13.44051    4.25697   -9.79128
       H    -7.67225    3.56653   -8.40458
       O    -6.77906    3.24915   -8.27498
      H1    -6.35163    3.76515   -7.63790
       H   -12.97204    5.53582   -6.75971
       O   -12.90530    4.55717   -6.74809
      H1   -12.88460    4.19084   -7.61402
       H   -16.10691    3.24902   -6.55684
       O   -15.23344    2.86076   -6.73020
      H1   -14.63983    3.64498   -6.67049
       H   -13.40235   -1.08245   -3.84689
       O   -13.61991   -1.23552   -4.78359
      H1   -13.94723   -0.40264   -5.06352
       H   -10.21297    3.28991  -10.11379
       O    -9.77333    3.06221   -9.24099
      H1   -10.29675    2.32619   -8.89462
       H   -12.39790    7.16653   -9.68374
       O   -12.75402    6.39699   -9.25148
      H1   -12.02330    5.94330   -8.85282
       H    -7.23300   -0.15019   -2.00812
       O    -7.14418    0.74100   -1.70427
      H1    -7.82433    0.85321   -1.01128
       H   -11.07519    1.03846   -1.55924
       O   -11.94328    1.33179   -1.76662
      H1   -11.92756    2.08099   -2.38580
       H   -15.38703    1.85681   -9.79596
       O   -14.90303    1.44389   -9.07117
      H1   -15.11878    1.96122   -8.29689
       H    -8.53040   -0.33740   -6.64773
       O    -9.39725   -0.43111   -7.07384
      H1    -9.83419   -1.16953   -6.56511
       H    -7.21278    4.87561   -2.70421
       O    -8.05834    4.49025   -2.86830
      H1    -7.94726    3.67423   -3.35484
       H   -12.30427    3.08587   -4.20778
       O   -11.88475    3.59903   -3.48659
      H1   -12.37323    4.38700   -3.31776
       H   -13.17122    0.10634   -1.99999
       O   -13.88445   -0.62343   -2.16402
      H1   -13.49880   -1.33055   -1.65017
       H    -7.90474    2.71246  -10.86995
       O    -7.18769    2.35489  -11.37492
      H1    -7.18345    2.85996  -12.21245
       H   -11.86452    0.57180   -7.84957
       O   -11.37979    1.28208   -7.37663
      H1   -10.50324    0.85002   -7.22026
       H    -9.13761    6.29261   -2.90006
       O    -9.06281    7.21233   -2.68429
      H1    -9.79658    7.42650   -2.07575
       H    -9.41694    4.17618    0.03253
       O    -8.72673    3.57117   -0.30506
      H1    -8.62726    3.87649   -1.22189
       H   -13.09602    7.92943   -6.87257
       O   -13.14475    7.27385   -6.11284
      H1   -14.04796    7.26286   -5.74763

