90
frame 1 | Written by MDAnalysis XYZWriter (release 2.4.3)
       H    12.27044  -16.54966   16.14178
       O    11.92559  -16.16194   17.03692
      H1    11.16524  -15.71589   16.60482
       H    10.10322  -14.41347   15.52734
       O     9.56161  -15.02012   16.12482
      H1     9.14327  -14.33563   16.73490
       H    17.71397  -13.20666    7.19175
       O    16.86195  -13.58578    7.44467
      H1    16.57637  -14.05392    6.65246
       H    18.66904  -14.20278   11.69168
       O    18.38997  -13.32028   11.38857
      H1    18.30715  -12.73952   12.14353
       H    15.67191  -18.11784   13.95446
       O    14.88883  -18.67106   14.13726
      H1    14.25014  -18.03282   14.44025
       H    18.00324   -9.65379   11.02761
       O    18.80754   -9.28434   11.42661
      H1    18.99264   -8.63655   10.73076
       H    14.24958  -13.55189   12.38365
       O    14.39512  -14.38299   11.89489
      H1    14.89224  -14.07635   11.10757
       H    12.79448  -11.16781   10.80787
       O    12.50858  -11.98908   11.20812
      H1    11.58687  -12.10066   10.91280
       H    13.43578  -11.94895   12.60327
       O    14.31706  -11.94292   13.05113
      H1    14.06519  -12.07181   13.92267
       H    14.31031  -15.44781   17.88412
       O    14.94694  -15.79617   17.23813
      H1    14.48616  -15.49191   16.41094
       H    10.62045  -15.68497   11.57376
       O    11.34040  -15.51892   12.23530
      H1    12.12672  -15.49425   11.64532
       H    13.08902  -12.90530    9.89604
       O    13.29068  -13.41205    9.10957
      H1    14.22924  -13.46864    9.07814
       H    12.62334  -13.47342   14.97074
       O    13.49357  -13.43963   15.36489
      H1    13.38654  -13.66427   16.30414
       H    10.05343  -13.19809   13.92873
       O    10.87613  -13.66837   14.17849
      H1    10.85893  -14.41438   13.53435
       H    17.09729  -11.30291   13.36541
       O    17.99074  -11.55860   13.70717
      H1    18.46064  -10.73063   13.70843
       H    18.67141  -12.37272    9.89458
       O    19.07311  -11.77111    9.19340
      H1    19.45908  -11.06841    9.76233
       H    12.68155  -15.17122    9.35128
       O    12.51567  -16.03142    9.75535
      H1    13.26002  -16.13304   10.34242
       H    15.63347  -14.38676   13.37059
       O    16.05768  -14.73521   14.15683
      H1    15.93143  -14.18780   14.94509
       H    14.68573  -15.84484    7.47924
       O    14.79736  -16.09539    8.43050
      H1    13.83495  -16.30511    8.64716
       H    18.53559  -16.96114   12.59807
       O    19.11558  -16.31852   12.08421
      H1    19.41526  -16.95225   11.39654
       H    16.34913  -11.41955   10.53398
       O    16.51815  -10.61869   11.05268
      H1    15.63975  -10.29020   11.35602
       H    17.46468  -12.41942   15.42525
       O    16.80192  -12.52154   16.14935
      H1    16.46700  -11.56487   16.25396
       H    12.74019  -13.87268    7.47413
       O    12.66056  -14.50407    6.73633
      H1    11.84154  -14.16627    6.30628
       H    14.14572   -9.56822   10.09439
       O    14.06659   -9.16666   10.96692
      H1    14.47056   -8.25864   10.81032
       H    16.27614  -13.47312    9.12455
       O    15.95577  -13.18285    9.99051
      H1    16.69166  -13.33225   10.62761
       H    17.06254  -16.50295   14.18204
       O    17.27993  -17.39026   13.95154
      H1    16.95060  -17.77394   14.80467
       H    12.57095  -14.60504   18.16688
       O    13.03082  -13.80512   17.98735
      H1    13.74557  -13.83523   18.66776
       H    13.92266  -19.61267   10.98563
       O    13.58451  -18.79003   11.31330
      H1    14.00833  -18.76141   12.26034
       H    13.45809   -9.91536    7.88042
       O    14.23155  -10.03856    8.43606
      H1    14.54503   -9.15647    8.47819
       H    12.12395  -16.81286   13.82983
       O    12.58275  -17.22534   14.57751
      H1    12.12902  -18.05681   14.72768

