90
frame 2 | Written by MDAnalysis XYZWriter (release 2.4.3)
       H    -3.63406    9.91850   -5.49230
       O    -4.12002    9.10464   -5.76461
      H1    -3.66551    8.76770   -6.53864
       H    -6.77236    2.45755   -5.19797
       O    -7.38091    3.20915   -5.20370
      H1    -7.19736    3.65652   -6.03236
       H    -5.76777    7.60594   -2.17054
       O    -6.63644    7.65948   -1.71104
      H1    -6.35943    7.79608   -0.77576
       H    -2.24860    3.81554   -4.25278
       O    -1.40608    3.32453   -4.25627
      H1    -0.85953    3.97737   -3.73995
       H     0.05731    8.35133   -7.99358
       O    -0.67399    8.15024   -7.32388
      H1    -0.54643    8.96256   -6.74733
       H    -4.03269    4.57908   -3.66731
       O    -3.41586    5.18149   -4.11719
      H1    -3.74649    5.13243   -5.03810
       H    -6.07568    4.38746   -2.40360
       O    -5.79469    3.67038   -2.96593
      H1    -6.21551    3.91832   -3.79910
       H    -0.83805    5.59677   -2.66774
       O    -0.05745    5.15018   -3.08365
      H1     0.56583    5.08533   -2.34508
       H    -8.78972    8.18682   -7.17960
       O    -8.14612    7.91324   -6.47631
      H1    -8.63273    7.33811   -5.89029
       H    -7.35681    4.72664   -0.66665
       O    -6.46993    5.13239   -0.76613
      H1    -6.77636    5.97120   -1.25064
       H    -5.75220    8.57016    1.26120
       O    -6.47011    8.80538    0.66981
      H1    -7.17448    8.20809    0.88065
       H    -0.51257   10.07855   -0.95499
       O    -0.92955    9.15311   -0.87251
      H1    -0.38589    8.82381   -1.65016
       H    -1.47898    5.88117    0.41455
       O    -1.91388    6.15829   -0.45743
      H1    -1.81843    7.11253   -0.57817
       H    -8.51348   11.31579   -3.81818
       O    -8.35542   11.98915   -3.16045
      H1    -7.42990   11.83201   -3.00729
       H    -4.81320    7.88437   -4.19809
       O    -4.43371    7.52210   -3.38275
      H1    -4.01558    6.78357   -3.82070
       H    -5.31408    4.24839   -6.94627
       O    -6.04041    4.45294   -7.53152
      H1    -5.64889    4.22310   -8.37171
       H    -3.54379    3.25673   -0.97276
       O    -3.31066    3.41398   -0.03569
      H1    -2.77244    4.24652   -0.11873
       H    -3.28445    8.85793   -3.12378
       O    -2.88518    9.72013   -3.00380
      H1    -2.29084    9.57939   -2.24747
       H    -5.79346   11.24868   -1.68445
       O    -5.83049   10.92523   -2.61783
      H1    -4.89589   10.63546   -2.77610
       H    -8.50854    9.23514   -5.10490
       O    -9.16189    9.67836   -4.53929
      H1    -9.00549    9.27513   -3.66821
       H     0.03159    6.17131   -5.19891
       O     0.82434    6.63371   -5.41659
      H1     0.48219    7.10557   -6.18473
       H    -8.27048    8.33647   -1.94389
       O    -9.25837    8.49639   -2.06966
      H1    -9.52033    8.99754   -1.28968
       H    -5.58937   11.93087   -4.87171
       O    -5.34823   12.78191   -5.23765
      H1    -5.61482   13.47547   -4.63433
       H    -2.11304    7.65905   -8.17804
       O    -2.93055    7.29762   -8.57076
      H1    -3.47258    8.11774   -8.63776
       H    -2.63348    4.68957   -7.05250
       O    -3.37875    5.20267   -6.81829
      H1    -3.50610    5.94100   -7.50974
       H     0.86984    7.70712   -3.43019
       O     0.94511    8.35158   -2.71997
      H1     1.45723    7.79905   -2.15375
       H   -10.80101    5.83395   -1.89446
       O    -9.83328    5.74178   -2.14380
      H1    -9.58813    6.66253   -2.13724
       H    -5.71270   10.04428   -6.96210
       O    -6.58364   10.11681   -7.28948
      H1    -6.95462    9.32858   -6.85513
       H    -5.86327    4.39235    0.61325
       O    -5.57136    4.41111    1.52380
      H1    -4.67903    4.03383    1.45122
       H     0.12931   11.17927   -6.72202
       O    -0.04862   10.49326   -6.04716
      H1    -0.84972   10.89200   -5.64570

