90
frame 0 | Written by MDAnalysis XYZWriter (release 2.4.3)
       H   -17.44481    5.51037   -5.07341
       O   -17.25433    6.05378   -4.27762
      H1   -16.29670    5.91940   -4.09467
       H    -8.01830    1.00376   -6.05311
       O    -8.82516    1.59565   -6.10251
      H1    -8.53465    2.11472   -6.86185
       H   -13.32260    4.67752   -7.44458
       O   -13.58158    5.61324   -7.36678
      H1   -13.98226    5.86561   -8.21040
       H   -14.60369    2.68756   -6.78685
       O   -13.85300    2.92090   -7.35636
      H1   -14.20907    2.72042   -8.23970
       H   -12.46922    8.70330   -3.25641
       O   -12.03956    7.99491   -2.74377
      H1   -11.57873    7.58322   -3.44869
       H   -12.35822    1.46482   -3.56012
       O   -11.55356    0.90484   -3.50576
      H1   -11.77935   -0.07460   -3.68523
       H   -14.90193    2.02141   -0.53379
       O   -15.33757    1.16281   -0.51876
      H1   -15.95729    1.30446    0.22472
       H   -14.93144   -0.39223   -1.82210
       O   -14.86503   -0.67581   -2.72697
      H1   -14.99717   -1.60674   -2.69394
       H   -14.17755    6.94405   -4.22125
       O   -14.02003    5.94736   -4.27615
      H1   -13.85534    5.68487   -5.22959
       H   -14.90484   -0.05624   -5.82217
       O   -14.87752    0.02810   -6.79798
      H1   -14.02808   -0.43529   -7.06732
       H   -16.76022    9.02182   -1.61344
       O   -15.81289    8.89137   -1.96703
      H1   -15.91655    9.03886   -2.90984
       H   -17.58160    3.77281   -6.39997
       O   -17.79823    4.71220   -6.55538
      H1   -17.61770    4.90045   -7.50121
       H   -13.43407    4.04141   -3.97003
       O   -13.10427    3.15901   -3.83065
      H1   -12.37311    3.17377   -4.54665
       H   -16.59248    2.23100   -5.29736
       O   -17.04693    2.08155   -6.12329
      H1   -17.68419    1.42635   -5.72872
       H   -16.10937    4.29857    1.15240
       O   -15.13989    4.23632    1.04830
      H1   -14.88890    5.17726    1.08727
       H   -11.58141    6.33029   -6.18208
       O   -10.84783    5.77585   -5.98773
      H1   -10.76453    5.92534   -5.04471
       H   -11.66487    1.16661   -1.60360
       O   -12.02979    1.42737   -0.72495
      H1   -11.16962    1.43553   -0.25030
       H   -10.98296    3.76225   -8.98275
       O   -10.28470    3.98229   -9.59714
      H1   -10.53245    3.55689  -10.41887
       H    -8.50879    3.11803   -1.42023
       O    -9.01915    3.91431   -1.02147
      H1    -9.52233    4.16008   -1.82262
       H   -11.32898    1.78779   -7.33082
       O   -11.67248    1.25961   -8.06854
      H1   -12.63495    1.16262   -7.88626
       H   -15.07329    2.37147   -3.52073
       O   -15.96803    2.55100   -3.38380
      H1   -16.28671    1.80924   -2.86753
       H   -17.01910    5.84543   -0.48345
       O   -17.48143    6.27564    0.26440
      H1   -18.29097    5.73945    0.21213
       H   -13.01326    5.91649   -0.31212
       O   -13.36534    6.34810    0.44913
      H1   -13.48436    7.29995    0.09711
       H   -13.52844    8.80602   -5.33178
       O   -14.31383    8.83513   -4.79763
      H1   -15.03446    8.76059   -5.51341
       H   -12.76236    4.06780   -2.21240
       O   -12.62225    4.98234   -2.01105
      H1   -13.20241    5.42924   -2.59787
       H   -11.81026   -2.16892   -2.98923
       O   -12.39594   -1.63718   -3.55498
      H1   -13.08176   -1.24843   -2.96970
       H   -15.25615    4.44986   -0.88527
       O   -15.90835    4.68532   -1.56588
      H1   -15.81360    4.05661   -2.28800
       H   -11.04320    5.23185   -2.90344
       O   -10.31057    5.63890   -3.35206
      H1    -9.88044    6.28148   -2.76033
       H   -18.39590    2.99277   -2.51333
       O   -19.03322    3.42894   -3.08366
      H1   -18.46054    3.99018   -3.57106
       H   -10.23101    3.32279   -5.47934
       O   -11.15870    3.25209   -5.72728
      H1   -11.29830    4.21510   -5.95123

