90
frame 1 | Written by MDAnalysis XYZWriter (release 2.4.3)
       H     8.76710   -8.85332    8.64585
       O     8.74810   -8.03911    9.21568
      H1     8.65970   -8.32082   10.13399
       H    13.94817    0.09013    7.88659
       O    14.89577    0.10275    7.78508
      H1    15.17780    0.00954    8.67472
       H    13.74357   -3.04098    3.00651
       O    13.45634   -2.52755    2.22404
      H1    13.13895   -3.20210    1.63416
       H     9.52789   -1.64260    6.27538
       O     9.81391   -1.07915    6.99535
      H1     9.08889   -0.49088    7.06456
       H     8.46310   -4.96306    2.80661
       O     7.75700   -4.91666    3.51077
      H1     8.10967   -5.61477    4.06395
       H    13.61155   -5.92853    4.78844
       O    13.00726   -6.24403    5.50677
      H1    12.13843   -6.20919    5.05443
       H    11.49013   -1.01368   11.26663
       O    11.97213   -1.27962   10.49007
      H1    12.75865   -1.70570   10.81126
       H    10.85742   -6.41800   11.69791
       O    10.93430   -6.04776   12.59931
      H1    10.12801   -5.53212   12.62439
       H    15.33668   -5.92484    7.16605
       O    15.27256   -5.22430    7.81516
      H1    14.25943   -5.26976    7.93346
       H    15.50225   -5.03619   12.45403
       O    15.72509   -4.84648   11.55588
      H1    16.21861   -4.03437   11.54029
       H     8.84558   -8.17072    5.65528
       O     9.43032   -8.80389    5.22407
      H1    10.24134   -8.66267    5.73254
       H    14.78869   -2.63041   12.21941
       O    14.45609   -2.38850   11.36391
      H1    14.37211   -3.28001   10.94968
       H    15.75844   -8.15376    5.89740
       O    16.21784   -7.28155    5.90199
      H1    16.88919   -7.54507    5.21529
       H    17.14469   -5.10081    8.27955
       O    18.11033   -5.17196    8.03352
      H1    18.08768   -5.56621    7.12342
       H    11.88142   -8.37217    7.53105
       O    11.91358   -8.47075    6.56841
      H1    12.41780   -7.66830    6.31628
       H    11.34546   -0.27574    7.62628
       O    12.15799    0.23117    7.61337
      H1    11.97521    0.99876    8.13024
       H     7.20691   -5.36013    8.61609
       O     6.98319   -6.26818    8.31043
      H1     7.65728   -6.90379    8.60829
       H    10.78218   -2.72021    9.55192
       O    10.42343   -3.35751    8.91906
      H1    10.01828   -2.70693    8.38843
       H    15.41958   -6.71892    9.05428
       O    15.65615   -7.61432    9.13067
      H1    16.28685   -7.72003    8.44408
       H     7.75328   -3.09367    8.40349
       O     7.73628   -3.78424    9.11777
      H1     8.62724   -3.77590    9.49511
       H    16.33827   -1.10657    5.16128
       O    16.41886   -1.46423    6.04331
      H1    15.77567   -0.97124    6.55168
       H    11.28426   -6.09177    9.26461
       O    11.09726   -6.93662    9.72700
      H1    10.12153   -7.11210    9.68513
       H    14.14572   -9.56822   10.09439
       O    14.06659   -9.16666   10.96692
      H1    14.47056   -8.25864   10.81032
       H    11.48370   -1.87096    3.61773
       O    11.36882   -2.10310    4.57592
      H1    11.62900   -1.27140    5.04087
       H    11.62938   -4.23326    7.84972
       O    12.26398   -4.98171    7.74742
      H1    12.37161   -4.88013    6.79463
       H     7.47475   -6.13466    6.47007
       O     7.90970   -6.48506    5.69101
      H1     8.80906   -6.20373    5.84015
       H    14.89986   -4.62775    4.64444
       O    14.94278   -5.30511    3.93815
      H1    15.62097   -5.95359    4.23418
       H    13.45809   -9.91536    7.88042
       O    14.23155  -10.03856    8.43606
      H1    14.54503   -9.15647    8.47819
       H    10.42699   -6.23273    3.95195
       O    10.33308   -5.60578    4.66290
      H1    10.57121   -4.74900    4.18680
       H    14.96413   -2.69749    5.60978
       O    14.34482   -3.46400    5.48380
      H1    14.48296   -3.98094    6.32728

