90
frame 2 | Written by MDAnalysis XYZWriter (release 2.4.3)
       H   -14.94669   14.52648    5.88192
       O   -14.05242   14.76600    6.07791
      H1   -13.74406   14.79040    5.12565
       H   -16.26198   15.70608    2.92543
       O   -16.29250   14.84068    2.60601
      H1   -17.12243   14.62978    2.26137
       H   -12.79120    9.32512   -2.10603
       O   -12.30996    8.54351   -2.37253
      H1   -12.83333    8.13225   -3.03407
       H   -11.69379   10.47764    1.42173
       O   -12.11383   11.27663    1.73311
      H1   -12.29371   11.79073    0.96158
       H   -12.06786   13.39845   -3.21590
       O   -11.17084   13.50265   -2.84209
      H1   -11.07129   12.60626   -2.43796
       H    -7.47314   13.91207    2.85738
       O    -7.78073   12.97446    2.79591
      H1    -7.21936   12.59777    3.47099
       H   -10.28281    8.05054    1.10339
       O   -11.09513    8.46529    0.81301
      H1   -11.67686    7.71193    0.76116
       H    -9.62456   11.74450   -1.50058
       O   -10.45636   11.23206   -1.43263
      H1   -10.54793   10.72977   -2.22340
       H   -11.11640    6.07906    2.85293
       O   -10.55884    5.47189    2.29942
      H1   -11.33016    5.07022    1.79660
       H    -7.07914   10.84264    0.41371
       O    -7.17048   11.83877    0.36098
      H1    -6.98428   11.93553    1.30324
       H    -7.87518    9.03034    4.17615
       O    -8.84090    9.13502    4.08756
      H1    -8.93111   10.10062    3.95274
       H    -9.43707   12.33263    3.42490
       O   -10.14571   11.76034    3.74683
      H1   -10.78217   11.78141    2.98797
       H   -15.56641    9.42144   -0.74406
       O   -14.97671    9.33190    0.06337
      H1   -15.42266    9.67356    0.81604
       H   -15.57891   12.68398   -0.90045
       O   -16.10215   12.89769   -0.10823
      H1   -15.62557   13.73654    0.06963
       H   -12.46122   14.91735    2.94265
       O   -12.76741   15.51022    3.69852
      H1   -12.80910   16.34688    3.20070
       H   -12.94385   11.56347    7.03106
       O   -13.31385   10.67392    7.04156
      H1   -12.82446   10.28221    6.31022
       H   -11.76088    8.45290    5.06661
       O   -12.03047    9.39484    5.11424
      H1   -11.30138    9.81916    4.65463
       H   -16.00980   11.76705    1.54628
       O   -16.27344   10.92599    1.92801
      H1   -16.05797   11.10012    2.85275
       H    -8.84522   12.22915    7.08070
       O    -8.58741   12.49629    6.18606
      H1    -9.36887   12.71664    5.73756
       H    -9.83619   15.63792    5.52592
       O   -10.04113   15.73578    4.57743
      H1   -11.02137   15.53693    4.48271
       H   -11.12966   14.04304   -1.04877
       O   -10.94359   14.39120   -0.17903
      H1   -11.23274   15.30887   -0.29152
       H    -8.27048    8.33647   -1.94389
       O    -9.25837    8.49639   -2.06966
      H1    -9.52033    8.99754   -1.28968
       H   -10.48899    7.01448    5.38156
       O   -11.09326    6.88520    4.63696
      H1   -11.80054    6.39795    5.10802
       H   -13.97703    6.46057    0.08987
       O   -14.18983    6.89272    0.92406
      H1   -14.45666    7.82371    0.65787
       H   -14.04295   12.75802    2.84394
       O   -13.98265   12.08388    3.48929
      H1   -13.30407   11.54141    3.11911
       H    -9.30955   15.00669   -0.15282
       O    -8.37255   15.24115   -0.16230
      H1    -7.82639   14.57525    0.19742
       H   -13.67037   14.61209    0.61917
       O   -13.14930   14.07753    1.27409
      H1   -12.33531   14.08609    0.75856
       H   -13.45287   10.53329   -0.17543
       O   -13.12802   11.20063   -0.87373
      H1   -12.17000   11.11705   -0.71280
       H   -12.57718   13.80815    6.82561
       O   -11.90994   13.09753    6.75055
      H1   -11.70394   13.09205    5.84537
       H   -16.44665   11.74558    5.04440
       O   -17.23820   11.11113    4.87544
      H1   -17.17293   10.36382    5.51703

