90
frame 3 | Written by MDAnalysis XYZWriter (release 2.4.3)
       H     2.89133    2.23873  -10.13532
       O     3.86087    2.22435  -10.30966
      H1     4.29320    2.46532   -9.51942
       H    -0.81590    4.85220  -13.70453
       O    -1.30341    4.03255  -13.86032
      H1    -1.62014    3.73924  -13.00687
       H     4.22291    4.95261  -19.06598
       O     3.30730    4.68392  -18.65510
      H1     2.98126    5.51925  -18.31767
       H    -0.94042    5.98592  -17.72213
       O    -1.32714    6.42195  -16.93711
      H1    -1.85792    7.18525  -17.16999
       H     0.47666    8.36141   -9.18648
       O    -0.15220    7.83054   -9.67853
      H1     0.25567    6.95791   -9.93501
       H     1.41739    2.87430  -14.96328
       O     2.06614    2.70470  -14.22131
      H1     1.49140    2.56484  -13.45337
       H     3.92931    8.71946  -11.38489
       O     4.59328    8.25010  -10.89049
      H1     5.28616    8.95991  -10.87026
       H     0.36178    3.19055  -18.01604
       O     0.74341    3.27499  -18.96450
      H1     1.63124    3.62488  -18.84634
       H     0.39476    2.31751  -12.30337
       O     0.87650    2.72456  -11.59054
      H1     0.66590    3.63404  -11.48161
       H     5.35606   10.03083  -15.25583
       O     4.82679    9.55700  -15.86947
      H1     5.12553    9.87294  -16.74475
       H     5.64654    3.33582  -13.31834
       O     6.05452    2.67109  -13.94188
      H1     6.76339    2.28694  -13.36922
       H     1.69704    5.56809  -10.12394
       O     0.96426    5.53777  -10.77063
      H1     1.25463    6.01745  -11.56847
       H     3.51883    7.93660  -18.51939
       O     2.74043    7.50352  -18.07424
      H1     2.39001    8.17983  -17.53058
       H     4.04010    4.80649  -12.79140
       O     4.62826    4.44728  -12.12680
      H1     4.12541    3.68809  -11.81455
       H     6.49984    5.72283   -9.63038
       O     6.52511    4.93984  -10.19632
      H1     5.80682    4.95168  -10.88488
       H     0.47713    7.30325  -13.44272
       O     0.38902    6.32173  -13.53966
      H1     1.28698    6.05479  -13.91550
       H     0.41119    0.10120  -13.39075
       O    -0.17916    0.91077  -13.35928
      H1    -0.63237    0.88530  -12.50086
       H     0.03278    7.53790  -16.61676
       O     0.53650    8.37683  -16.54410
      H1     1.09340    8.29328  -15.75876
       H     3.50833    0.67173  -11.30056
       O     3.62058   -0.25386  -11.60694
      H1     3.97862   -0.06550  -12.48852
       H     3.06862    8.87055  -14.59365
       O     2.19794    8.70062  -14.31246
      H1     2.09678    8.70053  -13.37506
       H     4.82398    1.39770  -14.13140
       O     4.15312    0.70698  -14.40194
      H1     3.39904    1.24868  -14.57596
       H     8.28923    5.14329  -17.09630
       O     7.86555    4.78465  -16.31167
      H1     7.51526    5.59406  -15.92410
       H    -0.18866    1.98883  -16.05879
       O     0.18454    2.89073  -16.17502
      H1    -0.40394    3.48957  -15.73796
       H     4.35485    7.90274   -9.27328
       O     4.27208    7.58315   -8.36009
      H1     3.87497    6.66852   -8.38575
       H     6.73416    3.84091  -17.35203
       O     5.91301    3.55522  -17.76707
      H1     5.26859    4.20591  -17.52718
       H     5.26598    7.63725  -15.65939
       O     5.41900    6.77165  -15.28254
      H1     5.82112    7.03088  -14.44304
       H     6.88663    6.50820  -12.24639
       O     6.31697    7.18938  -12.67145
      H1     5.71337    7.55994  -11.97268
       H     4.57588    0.78610  -16.02491
       O     4.89693    1.02576  -16.96774
      H1     5.20676    1.93085  -16.89235
       H     1.91541    9.61887  -11.80173
       O     1.68295    8.65936  -11.58301
      H1     0.93975    8.73423  -11.00741
       H     3.01870    4.59584  -14.51102
       O     3.05175    5.50182  -14.16662
      H1     3.66469    5.96118  -14.73786

