90
frame 2 | Written by MDAnalysis XYZWriter (release 2.4.3)
       H   -16.29788    6.55210   -4.51291
       O   -16.82647    6.28702   -3.74429
      H1   -16.04181    6.05125   -3.17670
       H   -13.15051    4.92702   -8.02586
       O   -13.86434    4.93473   -7.35443
      H1   -14.55558    5.25812   -7.96077
       H   -12.79120    9.32512   -2.10603
       O   -12.30996    8.54351   -2.37253
      H1   -12.83333    8.13225   -3.03407
       H   -13.67225    6.42050   -4.18631
       O   -13.29500    5.58702   -4.49345
      H1   -13.65721    5.67066   -5.33791
       H    -8.78972    8.18682   -7.17960
       O    -8.14612    7.91324   -6.47631
      H1    -8.63273    7.33811   -5.89029
       H   -15.71832    7.30610   -8.94726
       O   -16.38158    6.69420   -8.61682
      H1   -17.11514    6.95388   -9.14225
       H   -10.28281    8.05054    1.10339
       O   -11.09513    8.46529    0.81301
      H1   -11.67686    7.71193    0.76116
       H   -11.73509    9.56371   -6.21092
       O   -11.48227    8.91242   -5.54537
      H1   -10.78862    9.45534   -5.16645
       H   -16.72330    9.92686   -3.25917
       O   -15.99342    9.72833   -2.65660
      H1   -15.29720    9.40666   -3.22882
       H   -16.87422    4.08043   -7.03020
       O   -17.79487    4.44924   -7.19247
      H1   -17.57114    4.91572   -8.05811
       H   -16.53432    7.71945   -6.73699
       O   -16.60594    8.21778   -5.89857
      H1   -17.59629    8.07177   -5.77859
       H   -12.58358    3.97079   -4.33341
       O   -12.06398    3.15627   -4.08688
      H1   -11.25983    3.38366   -4.52701
       H   -15.56641    9.42144   -0.74406
       O   -14.97671    9.33190    0.06337
      H1   -15.42266    9.67356    0.81604
       H   -15.19924    2.42217   -6.68975
       O   -16.03785    2.66355   -6.36669
      H1   -15.96179    2.73243   -5.39774
       H   -10.61963    7.04093   -4.83103
       O    -9.86519    6.45253   -4.87032
      H1    -9.72781    6.16059   -3.94866
       H    -8.50854    9.23514   -5.10490
       O    -9.16189    9.67836   -4.53929
      H1    -9.00549    9.27513   -3.66821
       H   -10.83530    2.95887   -6.85264
       O   -11.20476    2.27899   -7.45163
      H1   -12.14938    2.49539   -7.30402
       H   -15.78001    2.05579   -2.92297
       O   -15.91186    2.83197   -3.40650
      H1   -16.87880    2.81889   -3.64173
       H   -16.61280    7.09501   -0.13428
       O   -17.41451    7.43676    0.29868
      H1   -18.15834    6.88592    0.02993
       H    -8.27048    8.33647   -1.94389
       O    -9.25837    8.49639   -2.06966
      H1    -9.52033    8.99754   -1.28968
       H   -13.97703    6.46057    0.08987
       O   -14.18983    6.89272    0.92406
      H1   -14.45666    7.82371    0.65787
       H   -14.74138   11.82092   -6.84604
       O   -14.71148   11.45925   -5.96307
      H1   -15.21814   10.68956   -5.95295
       H   -18.35665    7.67890   -3.66640
       O   -19.09015    8.24014   -3.78715
      H1   -18.78707    9.09992   -3.66077
       H   -13.37675    8.90683   -4.66232
       O   -14.20528    8.36417   -4.46631
      H1   -14.75679    8.44839   -5.23456
       H   -12.58448   11.36436   -7.53189
       O   -12.15082   10.46449   -7.57510
      H1   -12.84164    9.96648   -8.07860
       H   -12.30082    3.93315   -1.01708
       O   -12.38479    4.77032   -1.51251
      H1   -12.38013    4.31993   -2.38903
       H   -14.32134    4.76107   -1.54566
       O   -15.23892    5.04164   -1.78202
      H1   -15.50719    4.39094   -2.50605
       H   -10.80101    5.83395   -1.89446
       O    -9.83328    5.74178   -2.14380
      H1    -9.58813    6.66253   -2.13724
       H   -19.23344    3.86242   -3.17198
       O   -18.77997    4.01653   -3.95860
      H1   -18.28104    4.90136   -3.74856
       H    -8.98031    3.54138   -5.51070
       O    -9.86798    3.90547   -5.78547
      H1    -9.77864    4.88577   -5.73362

