90
frame 2 | Written by MDAnalysis XYZWriter (release 2.4.3)
       H   -17.13080   -0.95882    5.59946
       O   -17.39887   -1.85535    5.61315
      H1   -18.05784   -1.87401    6.32344
       H   -16.60813   -6.81278    0.28066
       O   -16.14993   -6.29783    0.98032
      H1   -15.75600   -7.00584    1.49757
       H   -14.89708    2.43021    0.87367
       O   -14.95914    1.47290    0.68500
      H1   -15.85952    1.36276    1.04638
       H   -13.84708   -4.24761    0.08578
       O   -12.94166   -4.42682   -0.23485
      H1   -12.56044   -5.04782    0.50270
       H   -12.72850   -7.02994    4.89125
       O   -12.91464   -6.17292    4.45759
      H1   -13.86379   -6.22435    4.24393
       H   -18.60470   -2.97022    4.31271
       O   -18.96680   -3.83304    4.05700
      H1   -19.58331   -3.47686    3.36490
       H   -19.48982  -11.52300    2.73967
       O   -19.68900  -10.98870    1.91941
      H1   -19.61587  -10.13820    2.34324
       H   -19.71905   -8.52796    6.93304
       O   -18.85118   -8.25149    7.17755
      H1   -18.45947   -8.18308    6.31052
       H   -18.68179   -3.94129    5.94930
       O   -18.96375   -4.41084    6.78023
      H1   -18.75539   -3.79796    7.46895
       H   -17.61785   -9.07062    4.77528
       O   -17.26515   -8.16676    4.88807
      H1   -17.94214   -7.71456    4.40971
       H   -16.02596   -8.16374    3.62760
       O   -15.26523   -7.76419    3.12717
      H1   -15.12158   -8.57799    2.59817
       H   -17.64701    0.52691    1.20430
       O   -17.15019    0.78477    1.99085
      H1   -16.68005   -0.01626    2.31266
       H   -15.67388   -4.45368    0.58545
       O   -15.35367   -3.67610    0.04810
      H1   -15.40984   -2.92796    0.59693
       H   -16.23292   -5.45769    3.62715
       O   -15.64106   -4.77093    3.96169
      H1   -15.75063   -4.74816    4.91362
       H   -14.60501   -1.07495    1.14349
       O   -15.36086   -1.41644    1.69555
      H1   -14.82319   -1.89995    2.33559
       H   -18.27976    3.83634    2.60591
       O   -18.44234    3.66475    1.66696
      H1   -17.95023    2.83108    1.50464
       H   -18.54882   -5.32446    3.12294
       O   -18.42103   -6.24465    2.75705
      H1   -17.71574   -6.09562    2.06494
       H   -18.17204   -2.17829   -0.74826
       O   -17.31355   -1.86568   -1.16360
      H1   -16.64607   -2.48180   -0.89490
       H   -19.77428    0.69662    5.12674
       O   -19.24535    0.97540    4.36880
      H1   -18.31151    0.93426    4.62734
       H   -13.69400   -3.54802    6.25560
       O   -13.14914   -4.26427    6.65918
      H1   -12.91488   -4.96219    6.02255
       H   -19.15004   -8.19947    0.05405
       O   -18.17775   -8.17250    0.08009
      H1   -17.87365   -9.09147    0.15028
       H   -18.99767    0.28806    9.36495
       O   -19.75888   -0.11352    8.91304
      H1   -19.53228   -1.04571    9.11636
       H   -15.02421   -3.40381    8.75760
       O   -15.01808   -2.46321    8.62257
      H1   -14.91841   -2.44360    7.66464
       H   -18.40200   -1.74280   -4.18550
       O   -18.19634   -0.90402   -3.73663
      H1   -17.83554   -1.26265   -2.87443
       H   -14.13949   -2.74112    4.04051
       O   -13.90633   -3.02220    3.19289
      H1   -14.47720   -3.82923    2.97957
       H   -19.85529   -3.23930    8.85092
       O   -19.04999   -2.75911    8.94258
      H1   -18.65493   -3.19359    9.70036
       H   -15.65479   -1.98529    5.96759
       O   -14.71505   -2.13203    5.74550
      H1   -14.34335   -1.25556    5.72425
       H   -16.46727   -5.98894    7.07132
       O   -16.23102   -5.14356    6.69020
      H1   -17.12975   -4.69444    6.69065
       H   -18.24021    0.29419   -1.02438
       O   -18.59574    0.88859   -0.39116
      H1   -19.55195    0.68600   -0.50002
       H   -15.54925    1.06264    4.92408
       O   -16.51217    0.95688    5.24645
      H1   -16.46240    1.16183    6.21008

