90
frame 1 | Written by MDAnalysis XYZWriter (release 2.4.3)
       H    -2.50091   18.00048  -11.87109
       O    -3.13239   18.19386  -12.60315
      H1    -2.87199   17.58660  -13.26136
       H    -5.68181   18.87440   -7.92521
       O    -4.87485   19.34996   -8.28206
      H1    -4.63125   19.82532   -7.50297
       H    -1.58544   16.54804  -14.89292
       O    -0.69422   16.89893  -14.80318
      H1    -0.30260   16.24277  -14.16611
       H    -3.82533   17.21153  -19.50710
       O    -4.79066   17.05511  -19.33280
      H1    -4.90539   17.50419  -18.41977
       H    -8.57906   13.27357  -14.16052
       O    -9.02489   12.44486  -14.23175
      H1    -9.94633   12.72122  -14.39011
       H    -4.03866   18.39451  -16.98829
       O    -4.83066   17.87452  -16.71666
      H1    -5.23802   18.54295  -16.14274
       H    -5.93091   14.68269  -12.96735
       O    -4.95328   14.56770  -12.85221
      H1    -4.80594   13.79937  -13.39686
       H    -6.38905   12.79980   -9.43042
       O    -5.65220   13.21670   -9.92747
      H1    -5.94945   12.96325  -10.82198
       H   -12.32893   19.38993  -13.69334
       O   -12.26999   18.42644  -13.58341
      H1   -11.42042   18.26331  -13.21234
       H    -7.82719   18.64524   -8.07150
       O    -7.30994   17.99584   -7.59934
      H1    -7.69550   17.13754   -7.81021
       H    -3.27412   18.50348   -8.44394
       O    -2.61106   17.78845   -8.36070
      H1    -2.96888   17.03701   -8.77982
       H   -10.56630   14.17617  -10.49478
       O   -10.81736   13.51257   -9.87021
      H1   -10.80667   13.93790   -9.00477
       H    -9.27044   15.98701  -11.83372
       O    -8.90707   15.21771  -11.33108
      H1    -8.39999   15.61302  -10.61351
       H    -8.87435   19.34008  -15.62746
       O    -7.87487   19.29147  -15.38104
      H1    -7.86645   18.47411  -14.92014
       H    -7.85645   14.41429  -12.46112
       O    -7.42481   14.32922  -13.33307
      H1    -7.57775   15.20551  -13.75306
       H    -7.41643   17.33027  -17.43191
       O    -8.18676   17.07734  -17.96010
      H1    -8.19678   16.11513  -17.76522
       H    -4.92310   16.36388  -10.40063
       O    -4.47653   15.69221   -9.82218
      H1    -4.83945   14.81204   -9.98998
       H    -7.63816   14.02265   -8.39756
       O    -7.41194   14.92004   -8.70148
      H1    -6.44687   14.88114   -8.80013
       H    -4.15439   12.53042  -15.63743
       O    -3.63813   13.33752  -15.38535
      H1    -3.96971   13.98209  -15.97539
       H   -11.82472   16.27874  -14.15755
       O   -11.43373   15.56462  -13.61063
      H1   -11.95172   15.53626  -12.80979
       H   -12.86399   13.02738  -14.27615
       O   -12.04400   12.99352  -13.80323
      H1   -11.82629   13.93572  -13.70849
       H   -12.54226   16.83440   -9.50996
       O   -12.13700   17.32516  -10.23654
      H1   -12.65596   17.00557  -10.99089
       H    -6.88657   14.06492  -17.44056
       O    -7.85612   14.13881  -17.54998
      H1    -8.06872   13.70595  -18.40814
       H    -7.57439   12.01628  -12.71033
       O    -6.90733   11.73301  -12.03612
      H1    -6.22184   11.40911  -12.68439
       H    -9.63503   18.75094  -12.03366
       O   -10.07453   17.88194  -12.13284
      H1   -10.71636   17.89970  -11.42101
       H    -3.28878   13.67810  -11.19530
       O    -2.78820   12.90650  -11.04477
      H1    -3.42823   12.28962  -10.66462
       H    -7.01902   17.28579  -13.15844
       O    -7.56419   17.00914  -13.90323
      H1    -8.41540   17.04875  -13.50379
       H    -4.16405   16.13865  -14.07756
       O    -3.56460   16.53142  -14.71804
      H1    -4.10939   16.97007  -15.38767
       H    -5.14439   15.78452  -18.20099
       O    -5.09588   14.92863  -17.75830
      H1    -5.51952   14.33337  -18.43611
       H    -5.88727   18.63551  -11.29770
       O    -5.76187   17.77934  -11.80587
      H1    -4.80457   17.80320  -12.06623

