90
frame 1 | Written by MDAnalysis XYZWriter (release 2.4.3)
       H    -9.61424   11.84528  -10.30333
       O    -8.93889   11.14346  -10.16419
      H1    -8.33275   11.35185  -10.91449
       H    -5.68181   18.87440   -7.92521
       O    -4.87485   19.34996   -8.28206
      H1    -4.63125   19.82532   -7.50297
       H    -8.57906   13.27357  -14.16052
       O    -9.02489   12.44486  -14.23175
      H1    -9.94633   12.72122  -14.39011
       H    -8.03364   11.88901   -8.74497
       O    -7.52924   12.42027   -8.13731
      H1    -7.25545   11.82675   -7.42636
       H    -6.72177   16.98584   -6.28083
       O    -6.48783   16.27123   -5.69742
      H1    -7.12452   15.55338   -5.70176
       H   -14.76669   15.92033  -12.44623
       O   -13.99021   16.46559  -12.13961
      H1   -13.80554   17.06677  -12.85123
       H    -5.93091   14.68269  -12.96735
       O    -4.95328   14.56770  -12.85221
      H1    -4.80594   13.79937  -13.39686
       H    -6.38905   12.79980   -9.43042
       O    -5.65220   13.21670   -9.92747
      H1    -5.94945   12.96325  -10.82198
       H   -12.32893   19.38993  -13.69334
       O   -12.26999   18.42644  -13.58341
      H1   -11.42042   18.26331  -13.21234
       H    -7.82719   18.64524   -8.07150
       O    -7.30994   17.99584   -7.59934
      H1    -7.69550   17.13754   -7.81021
       H   -11.23968   17.04435   -6.96431
       O   -10.29570   17.16170   -6.93751
      H1   -10.04784   17.20285   -5.99358
       H   -10.56630   14.17617  -10.49478
       O   -10.81736   13.51257   -9.87021
      H1   -10.80667   13.93790   -9.00477
       H    -9.27044   15.98701  -11.83372
       O    -8.90707   15.21771  -11.33108
      H1    -8.39999   15.61302  -10.61351
       H    -8.87435   19.34008  -15.62746
       O    -7.87487   19.29147  -15.38104
      H1    -7.86645   18.47411  -14.92014
       H   -13.01810   15.09487   -7.61448
       O   -12.68593   15.97338   -7.92293
      H1   -13.22038   16.61522   -7.48196
       H    -7.85645   14.41429  -12.46112
       O    -7.42481   14.32922  -13.33307
      H1    -7.57775   15.20551  -13.75306
       H    -4.92310   16.36388  -10.40063
       O    -4.47653   15.69221   -9.82218
      H1    -4.83945   14.81204   -9.98998
       H    -7.63816   14.02265   -8.39756
       O    -7.41194   14.92004   -8.70148
      H1    -6.44687   14.88114   -8.80013
       H   -11.82472   16.27874  -14.15755
       O   -11.43373   15.56462  -13.61063
      H1   -11.95172   15.53626  -12.80979
       H   -12.86399   13.02738  -14.27615
       O   -12.04400   12.99352  -13.80323
      H1   -11.82629   13.93572  -13.70849
       H   -12.54226   16.83440   -9.50996
       O   -12.13700   17.32516  -10.23654
      H1   -12.65596   17.00557  -10.99089
       H    -9.18647   13.82991   -6.68492
       O   -10.05017   14.22785   -6.95313
      H1    -9.83911   15.14908   -6.94621
       H    -7.57439   12.01628  -12.71033
       O    -6.90733   11.73301  -12.03612
      H1    -6.22184   11.40911  -12.68439
       H    -9.63503   18.75094  -12.03366
       O   -10.07453   17.88194  -12.13284
      H1   -10.71636   17.89970  -11.42101
       H   -13.68916   12.28206   -9.39069
       O   -13.17448   12.23807  -10.24726
      H1   -12.50253   12.92964  -10.13521
       H    -3.28878   13.67810  -11.19530
       O    -2.78820   12.90650  -11.04477
      H1    -3.42823   12.28962  -10.66462
       H   -12.82085   13.78222   -5.59486
       O   -12.65328   13.59660   -6.49336
      H1   -11.74543   13.87740   -6.52408
       H    -7.01902   17.28579  -13.15844
       O    -7.56419   17.00914  -13.90323
      H1    -8.41540   17.04875  -13.50379
       H    -4.16405   16.13865  -14.07756
       O    -3.56460   16.53142  -14.71804
      H1    -4.10939   16.97007  -15.38767
       H    -5.88727   18.63551  -11.29770
       O    -5.76187   17.77934  -11.80587
      H1    -4.80457   17.80320  -12.06623

