90
frame 1 | Written by MDAnalysis XYZWriter (release 2.4.3)
       H    15.00040   10.05431   18.15293
       O    15.42342   10.63947   18.71811
      H1    16.11109   11.09599   18.16265
       H    12.69851   14.56424   17.86307
       O    13.58533   14.54567   18.12264
      H1    13.65374   15.46975   18.50718
       H     9.72945   17.48969   17.54253
       O    10.08898   16.76095   18.11505
      H1    11.07164   16.81272   17.95078
       H    10.62771   19.92177   15.10385
       O    11.48631   19.50150   15.06030
      H1    11.48647   18.88900   15.86577
       H    18.13078   12.07627   12.07001
       O    18.77709   11.84098   12.79270
      H1    19.25517   11.07955   12.37559
       H    17.76195   15.82711   11.76890
       O    18.09556   15.41756   10.94906
      H1    17.63035   16.05974   10.32239
       H    14.15651   12.42193   11.29687
       O    14.32486   12.59974   10.36948
      H1    15.25200   12.44817   10.18481
       H    11.41698   14.48045   15.46268
       O    11.59844   15.02377   14.67003
      H1    11.35068   15.92358   14.98622
       H    17.52765   18.91804   11.22886
       O    18.24374   19.36977   10.67045
      H1    17.74734   19.89009   10.00735
       H    17.69053   15.28211   13.69212
       O    17.08100   16.02478   13.45313
      H1    16.18164   15.66340   13.74377
       H    17.88110   16.36631   17.99858
       O    18.62189   16.05752   17.44994
      H1    19.37029   16.11342   18.03150
       H    13.65548   17.47121   18.67214
       O    14.14769   17.06651   19.43362
      H1    15.10848   17.09179   19.27145
       H    18.03189   13.86128   15.43546
       O    17.44191   13.77252   16.24304
      H1    17.82115   14.47466   16.80615
       H    18.49865   11.27225   18.07859
       O    17.96700   12.06151   18.32279
      H1    18.03717   12.44022   17.43732
       H    16.33286   17.16978   12.01754
       O    15.67280   17.85346   11.92227
      H1    15.22293   17.69291   12.76497
       H    14.26143   14.24805   10.09870
       O    14.31220   15.22857   10.24356
      H1    13.96233   15.25099   11.13663
       H    13.63037   11.62041   15.80728
       O    13.15961   10.77189   15.71672
      H1    12.35414   11.07316   16.21275
       H    13.30671   12.73845   18.75987
       O    12.98842   11.87336   18.89726
      H1    13.79887   11.37502   18.98013
       H    10.45914   14.65764   17.41143
       O    11.11520   13.96962   17.14065
      H1    10.69568   13.09119   17.21589
       H    17.42081   13.46734   10.51964
       O    17.22602   12.55269   10.32759
      H1    17.15593   12.53776    9.33571
       H    16.15016    9.98991   14.62247
       O    16.22968   10.97870   14.64742
      H1    17.11324   11.13662   14.32152
       H    12.23957   18.86268   17.60396
       O    12.52659   18.00772   17.27501
      H1    13.37682   18.23900   16.88654
       H    15.82058   18.46625   16.59557
       O    14.93364   18.69952   16.26864
      H1    15.20071   19.30499   15.58579
       H    14.01756   17.10324    9.88336
       O    13.49280   17.92118    9.77479
      H1    13.02829   17.76557   10.66677
       H    12.83240   13.62843   13.50689
       O    13.08318   12.77735   13.10625
      H1    13.21679   12.25164   13.87333
       H    19.32048   13.79500   13.34397
       O    19.08618   14.43137   14.01300
      H1    19.78700   15.07418   14.09863
       H    14.34120   13.75847   16.70785
       O    14.30228   13.26358   15.84728
      H1    15.22603   12.93317   15.78446
       H    13.37838   15.46669   13.79166
       O    14.30787   15.19259   13.60846
      H1    14.41726   14.40504   14.21231
       H    18.13132   17.52681    8.89349
       O    17.24659   17.08250    9.04710
      H1    17.30322   16.29322    8.47005
       H    17.71151   17.33837   14.82436
       O    17.78796   17.73963   15.72125
      H1    18.09184   16.97520   16.29089

