90
frame 2 | Written by MDAnalysis XYZWriter (release 2.4.3)
       H     6.99413    4.90811  -18.90955
       O     6.04355    5.11367  -19.00567
      H1     5.66850    4.50961  -18.33832
       H    -3.78339    2.01757  -18.21944
       O    -2.96229    1.94699  -17.63563
      H1    -2.58298    1.18691  -18.06405
       H     3.33837    1.39196  -13.04434
       O     4.24577    1.11499  -12.83330
      H1     4.54493    1.87922  -12.27597
       H     0.99279    4.86851  -13.55069
       O     1.74159    5.05477  -12.94456
      H1     1.86477    4.21295  -12.48377
       H     6.76051    2.88850  -14.04141
       O     6.37372    2.05602  -14.36672
      H1     5.69301    1.96330  -13.70260
       H     7.74349    0.84197  -14.38518
       O     8.43328    0.25159  -14.65335
      H1     9.07196    0.95159  -14.95314
       H     1.19131    2.23463  -13.31543
       O     1.82375    2.06973  -14.01279
      H1     2.00231    3.00255  -14.32684
       H     0.30623    4.28974  -19.37749
       O    -0.46155    4.47871  -18.82065
      H1    -0.41903    3.71300  -18.23544
       H     4.18320    1.58963  -19.38382
       O     3.37672    1.90863  -19.03274
      H1     3.29715    1.32621  -18.23390
       H     8.77812    3.50249  -16.93501
       O     9.13016    4.30046  -16.52217
      H1     9.22624    4.89981  -17.30889
       H     2.42158    0.36852  -16.32884
       O     3.30106    0.42884  -16.54176
      H1     3.68904    0.70342  -15.72640
       H    -1.13461   -2.69110  -17.34816
       O    -1.25142   -3.43716  -16.70680
      H1    -1.45627   -2.96633  -15.88688
       H     2.45747   -1.47850  -12.10183
       O     3.38325   -1.43542  -11.88926
      H1     3.71538   -0.63335  -12.33427
       H     4.87854    6.96637  -15.96560
       O     3.93427    6.85894  -16.22035
      H1     3.53189    7.53795  -15.64448
       H    -0.29776    0.13981  -19.23508
       O    -0.90387   -0.03219  -18.48236
      H1    -1.26151   -0.87036  -18.72034
       H     4.01063    6.42674  -19.31865
       O     3.17017    6.52858  -19.77833
      H1     2.70603    7.29101  -19.40627
       H     7.70761    4.42057  -15.13162
       O     7.40138    4.48071  -14.21949
      H1     8.08916    4.97797  -13.76797
       H     1.17671    5.32679  -17.47170
       O     1.63988    5.23205  -16.64632
      H1     2.21399    5.97152  -16.47056
       H     5.00900    4.31306  -16.01278
       O     5.30745    3.81091  -16.79745
      H1     4.80134    3.05197  -16.88175
       H     3.67340   -3.04819  -13.33217
       O     3.93060   -3.82792  -13.88377
      H1     4.35672   -3.25462  -14.62157
       H     6.74942    2.52363  -16.76071
       O     7.41013    1.91753  -17.15993
      H1     7.68201    1.33650  -16.43458
       H     5.97613   -1.06649  -18.85472
       O     5.44105   -1.70560  -18.45044
      H1     5.83323   -2.51474  -18.80145
       H     0.37518    4.70527  -15.39967
       O    -0.41294    4.86474  -14.87245
      H1    -0.34841    5.80509  -14.77308
       H    -0.69653    3.17759  -15.87428
       O    -0.38197    2.81561  -16.72492
      H1    -1.13683    2.33024  -17.13094
       H     9.42407    4.91893  -19.53339
       O     8.65029    4.32051  -19.57657
      H1     9.05428    3.42505  -19.79399
       H     4.02492   -1.15736  -15.79209
       O     4.70338   -1.89660  -15.85869
      H1     5.07355   -1.79824  -16.74131
       H     0.18602    0.73300  -15.82745
       O     0.60406   -0.01103  -16.29146
      H1     0.15502   -0.10122  -17.12973
       H     8.97687   -1.20393  -16.53761
       O     9.75588   -1.55728  -16.99288
      H1     9.59211   -2.51695  -16.77822
       H     1.70223   -4.74238  -17.26988
       O     1.40506   -4.16748  -16.50079
      H1     0.45412   -4.03772  -16.67007
       H     1.57717   -2.75810  -15.37324
       O     1.68173   -2.03606  -14.65683
      H1     1.24290   -1.25713  -15.08084

