90
frame 2 | Written by MDAnalysis XYZWriter (release 2.4.3)
       H     3.41789  -10.85136   16.92293
       O     3.65820   -9.96820   17.18678
      H1     3.38912   -9.98880   18.09333
       H     9.62433  -15.08234   15.83259
       O     9.11709  -15.17519   16.64150
      H1     9.47682  -14.42134   17.10445
       H     4.46831  -10.68565   11.60477
       O     3.59308  -10.26534   11.66394
      H1     3.05381  -10.96167   11.27756
       H     2.80430  -16.83846   15.66713
       O     2.40863  -17.71968   15.65005
      H1     2.44725  -17.91799   14.73742
       H     7.20593   -8.85280   18.61627
       O     6.30596   -8.96048   18.92483
      H1     5.87015   -9.62797   18.39519
       H     5.59046  -11.62628   12.47275
       O     6.23060  -11.59990   11.68059
      H1     5.97757  -12.48216   11.27624
       H    10.68331  -13.53119   14.36008
       O    11.18674  -14.20452   14.76555
      H1    11.31030  -14.78621   13.99630
       H     5.25712  -18.74357   13.52496
       O     5.55111  -18.91442   14.44278
      H1     5.71534  -18.09923   14.90765
       H     8.80859  -11.32859   15.15932
       O     8.85080  -12.27393   14.99987
      H1     8.20522  -12.56231   15.66239
       H     2.96336  -13.15576   18.04429
       O     2.55080  -13.01964   17.18300
      H1     1.59161  -12.94562   17.40565
       H     5.15047  -18.06571   17.61913
       O     5.64395  -17.56697   17.02147
      H1     5.09889  -16.78052   16.89891
       H     2.23532  -11.95571   13.43554
       O     2.56783  -12.10429   14.32581
      H1     2.19754  -12.94804   14.55298
       H     2.65432   -9.40795   15.85635
       O     2.08003   -8.92887   15.27242
      H1     2.71182   -8.58715   14.62821
       H     5.56480   -8.28153   15.20001
       O     5.76977   -9.06611   15.72738
      H1     5.05702   -9.07476   16.34693
       H     1.05903  -15.11406   15.57089
       O     1.57348  -14.71112   14.82423
      H1     0.81840  -14.70667   14.18923
       H     4.56038  -13.85994   11.27237
       O     3.87919  -13.23559   10.87342
      H1     3.89064  -13.39784    9.93935
       H     7.09185  -15.44236   11.24938
       O     6.24267  -15.01546   11.48858
      H1     6.15432  -15.24370   12.43619
       H     5.20859  -13.48316   19.53624
       O     5.10711  -12.62541   19.05462
      H1     5.45764  -12.14765   19.84016
       H     8.82658  -12.19703   13.37020
       O     8.67178  -12.12992   12.39701
      H1     7.72226  -11.93905   12.33622
       H     6.51313  -12.28715   18.12511
       O     7.24090  -12.14396   17.50001
      H1     8.03997  -12.46259   18.04349
       H     9.98124   -9.53864   11.85829
       O     9.12348   -9.57188   11.40780
      H1     8.73418  -10.42557   11.68164
       H     4.50336  -14.81084   16.02257
       O     3.88881  -15.41152   16.57125
      H1     3.12825  -14.83358   16.83269
       H     5.11333  -18.03897   11.48128
       O     5.60187  -17.64085   10.80002
      H1     5.53503  -16.67390   11.03828
       H     7.33851   -9.41442   14.98017
       O     8.23919   -9.21378   14.58701
      H1     8.05464   -8.71533   13.78205
       H     2.45565  -14.71340   13.29686
       O     2.91770  -15.13596   12.53978
      H1     3.04405  -14.37034   11.96484
       H     9.05973  -14.00627   19.46910
       O     9.31084  -13.51369   18.70799
      H1     9.93909  -12.81550   19.14158
       H     4.23770  -11.72926   14.47541
       O     5.20841  -11.50772   14.31917
      H1     5.30457  -10.62856   14.75728
       H     6.22403  -13.61673   16.05053
       O     5.93957  -13.97744   15.21111
      H1     5.85014  -13.08012   14.77385
       H     8.56603  -16.29555   17.85508
       O     8.27557  -17.03997   18.47148
      H1     7.35414  -16.97250   18.26248
       H     6.77518  -15.42286   14.34739
       O     6.83182  -16.15836   13.75926
      H1     7.63190  -16.60159   14.19660

