90
frame 1 | Written by MDAnalysis XYZWriter (release 2.4.3)
       H    14.21728   -0.42204  -19.67678
       O    14.22425    0.08552  -18.83288
      H1    15.00958   -0.11957  -18.28572
       H    15.36596    4.71744  -19.93118
       O    14.78129    5.17030  -19.23800
      H1    15.55456    5.42312  -18.64917
       H    11.67957    4.79042  -17.06574
       O    10.96134    5.27770  -16.54729
      H1    10.22350    4.61296  -16.55331
       H    18.95533    0.51359  -11.69285
       O    19.22928    1.23498  -12.30013
      H1    20.00093    1.59578  -11.81144
       H    13.28379    7.97127  -19.00317
       O    13.10047    7.42416  -19.80758
      H1    13.70319    6.68527  -19.57723
       H    17.99219    7.39610  -17.24252
       O    18.41339    6.83316  -16.58039
      H1    19.31522    6.98480  -16.84578
       H    13.60180    4.60557  -17.86146
       O    13.21319    4.12794  -17.14038
      H1    12.97257    3.26884  -17.51213
       H    17.78151    2.04314  -11.52799
       O    16.89369    2.26162  -11.10861
      H1    17.11230    2.68002  -10.28187
       H    12.70037   -1.04816  -18.19246
       O    12.34470   -1.81963  -17.73059
      H1    11.42821   -1.45755  -17.47717
       H    14.75848    4.88933  -13.96236
       O    14.38645    5.80184  -13.98967
      H1    13.41332    5.74081  -14.14269
       H    16.61685    5.15921  -12.75716
       O    17.37846    5.68290  -12.42116
      H1    17.96699    5.49298  -13.18342
       H    16.75193    8.54719  -18.97536
       O    17.56148    8.34480  -18.56797
      H1    18.10283    9.17113  -18.63749
       H    16.31017   -3.81026  -16.05540
       O    16.51551   -3.04582  -16.68786
      H1    17.40313   -2.82537  -16.38492
       H    18.61353   -1.02150  -14.60803
       O    18.72531   -2.01070  -14.57763
      H1    18.06126   -2.19269  -13.89134
       H    15.44384    2.38005  -17.11996
       O    15.92939    1.64582  -16.85359
      H1    15.53215    1.26218  -16.04504
       H    17.77007    4.17914  -18.64721
       O    17.30451    4.49998  -17.84148
      H1    17.90040    5.22635  -17.60435
       H    18.01392   -0.58927  -18.33667
       O    17.07829   -0.41155  -18.34828
      H1    16.94228    0.30572  -17.75045
       H    16.54915    6.48747  -16.10448
       O    15.63055    6.73711  -16.31584
      H1    15.18210    6.25670  -15.63420
       H    12.63991    1.20256  -18.24922
       O    11.96561    1.80657  -17.93795
      H1    12.07995    1.52884  -17.00112
       H    19.52153   -3.98546  -17.07729
       O    19.59967   -3.00429  -17.00876
      H1    19.41941   -2.82123  -16.06746
       H    12.68281    9.07988  -17.24739
       O    13.60524    8.88321  -17.37033
      H1    13.96379    8.44225  -16.61061
       H    13.25916    0.59422  -13.68839
       O    12.82480    0.03253  -14.32023
      H1    13.59196   -0.29656  -14.88480
       H    15.60858   -0.63292  -14.86150
       O    15.02548   -0.80764  -15.60513
      H1    15.55541   -1.41089  -16.16498
       H    17.73440    2.38727  -15.59482
       O    17.86785    3.29366  -15.23456
      H1    17.57847    3.84274  -15.96480
       H    19.24487    4.57646  -14.85062
       O    19.60807    5.46635  -14.45379
      H1    19.52408    6.03636  -15.24739
       H    15.26254    0.95967  -12.64895
       O    15.83692    0.37372  -13.22330
      H1    16.51784    0.17347  -12.53147
       H    18.45039    2.04543  -19.89193
       O    18.67684    2.95056  -19.64528
      H1    19.30783    2.75073  -18.89223
       H    16.78428    3.21550  -13.86626
       O    16.00663    3.52176  -13.45759
      H1    16.15379    3.32930  -12.52542
       H    19.61994    0.22137  -16.33768
       O    18.94716    0.41198  -15.66637
      H1    19.33916    0.75468  -14.87522
       H    11.11476    6.09009  -18.03545
       O    10.80568    6.28591  -18.97002
      H1    11.47559    6.89608  -19.27996

