90
frame 4 | Written by MDAnalysis XYZWriter (release 2.4.3)
       H   -19.36456    0.50327   -4.63987
       O   -18.68007    0.86028   -5.26031
      H1   -17.82152    0.79002   -4.76911
       H   -19.59179    0.37658  -10.84356
       O   -18.85454    0.82473  -10.42544
      H1   -18.60387    0.25308   -9.71717
       H   -13.68319    1.19450   -7.24831
       O   -12.95771    1.01958   -6.62752
      H1   -12.15934    1.05727   -7.21816
       H   -16.87150   -5.28290   -2.82425
       O   -17.62044   -5.71148   -2.42543
      H1   -18.41013   -5.21284   -2.75315
       H   -18.15923   -3.12216  -11.13715
       O   -17.86349   -2.74747  -11.98187
      H1   -18.18556   -3.52868  -12.53033
       H   -16.92615   -4.98774   -6.58722
       O   -17.12184   -5.24768   -5.68237
      H1   -17.34082   -4.36073   -5.28729
       H   -17.79988    4.10247  -10.77600
       O   -18.02929    3.54803  -11.50897
      H1   -18.27332    2.73352  -11.10492
       H   -18.02500   -4.36959   -1.07161
       O   -18.57578   -4.14359   -0.32682
      H1   -18.88930   -3.24702   -0.61995
       H   -17.82524   -5.72677  -13.90524
       O   -18.78244   -5.45330  -13.94221
      H1   -19.21061   -5.69027  -13.08372
       H   -15.87363   -3.15737  -11.88064
       O   -14.91232   -3.27423  -11.95901
      H1   -14.72363   -4.08465  -11.44227
       H   -14.52538   -4.95430   -3.56494
       O   -15.41198   -4.68320   -3.59388
      H1   -15.62320   -4.97464   -4.54015
       H   -19.72604   -4.05166   -9.96321
       O   -18.76352   -4.20245  -10.03701
      H1   -18.35130   -4.37304   -9.15020
       H   -15.72010   -1.70978   -8.83640
       O   -15.46951   -2.64720   -8.99975
      H1   -15.08534   -2.60193   -9.88375
       H   -14.96605   -2.75451   -4.37440
       O   -14.96365   -2.17891   -5.11398
      H1   -14.04320   -2.26096   -5.40608
       H   -16.48905   -5.61955   -8.94893
       O   -16.77374   -4.90738   -8.33221
      H1   -16.23100   -4.11203   -8.61228
       H   -19.95203   -1.99821   -7.07484
       O   -19.23602   -2.69418   -7.03081
      H1   -18.38759   -2.29439   -7.29667
       H   -18.00208   -7.54223   -8.77664
       O   -17.95057   -8.17296   -8.05238
      H1   -18.40714   -7.73951   -7.33523
       H   -18.30333   -2.68957   -5.65319
       O   -17.95814   -2.83968   -4.75202
      H1   -17.08423   -2.45145   -4.72249
       H   -15.79253    3.46839   -7.14379
       O   -15.05163    3.11719   -7.60761
      H1   -14.35001    3.70426   -7.31371
       H   -19.65180   -0.89811  -13.27343
       O   -19.31217   -1.18981  -14.11564
      H1   -18.37414   -1.40058  -13.87079
       H   -15.09472   -7.88991   -4.83048
       O   -14.38880   -7.25816   -4.98258
      H1   -14.01945   -7.51756   -5.84793
       H   -18.25859   -0.01887   -7.11732
       O   -17.84981   -0.50196   -7.79035
      H1   -17.08226    0.03478   -8.17437
       H   -16.12158    1.16424   -9.56242
       O   -15.87119    0.76020   -8.74883
      H1   -15.74942    1.48579   -8.13350
       H   -17.64895   -5.82362  -10.41150
       O   -17.11648   -6.57689  -10.28328
      H1   -16.23303   -6.32253  -10.73704
       H   -19.28591   -1.02129   -1.21005
       O   -19.13031   -1.59124   -0.47745
      H1   -18.29128   -1.34170   -0.06718
       H   -14.69222   -1.50533   -2.30378
       O   -15.52781   -1.49101   -1.84398
      H1   -16.00157   -0.91032   -2.41288
       H   -19.91436   -7.11843   -5.33707
       O   -19.28359   -6.91958   -6.00070
      H1   -18.54329   -6.47795   -5.57799
       H   -15.87962    1.17882   -3.70751
       O   -16.29610    0.28373   -3.92911
      H1   -15.72331   -0.13526   -4.57176
       H   -15.31922   -4.75040   -1.54057
       O   -15.28987   -4.05758   -0.86831
      H1   -15.52218   -3.28663   -1.44864
       H   -13.80119   -5.87807  -11.25039
       O   -14.29464   -5.49469  -10.49582
      H1   -13.65010   -5.37981   -9.77178

