90
frame 1 | Written by MDAnalysis XYZWriter (release 2.4.3)
       H   -17.99235   11.53808   -8.44217
       O   -17.36423   12.02656   -8.97208
      H1   -17.32756   12.86125   -8.56492
       H   -17.47977   15.71358   -3.20358
       O   -17.63556   15.06419   -3.92055
      H1   -17.31453   14.22688   -3.52459
       H   -19.81799   16.70378  -16.77340
       O   -18.96709   17.23684  -16.64142
      H1   -19.40834   18.16603  -16.60090
       H   -19.16346   14.84028  -10.75291
       O   -19.62624   15.23816  -10.03041
      H1   -19.02710   15.98386   -9.80472
       H   -16.22869   14.78078  -14.36115
       O   -16.15053   15.38763  -13.56761
      H1   -16.70578   14.93690  -12.93887
       H   -14.27870   20.09280   -8.76549
       O   -15.09286   19.75791   -8.38608
      H1   -15.31356   19.08829   -9.00942
       H   -16.37842   17.16866   -9.96631
       O   -15.43489   17.46236   -9.85915
      H1   -15.17988   17.31330  -10.74735
       H   -14.76669   15.92033  -12.44623
       O   -13.99021   16.46559  -12.13961
      H1   -13.80554   17.06677  -12.85123
       H   -14.71729   10.67239   -8.45329
       O   -14.69275   11.46734   -7.96213
      H1   -15.55521   11.92896   -8.20736
       H   -16.57016   16.62318   -6.26546
       O   -16.11263   15.91117   -5.87593
      H1   -16.85268   15.52120   -5.32358
       H   -16.63136   19.12961   -6.77049
       O   -17.07237   18.27816   -6.76376
      H1   -17.77748   18.52511   -6.12987
       H   -16.16948   12.05864  -15.01719
       O   -16.41087   11.37502  -14.35229
      H1   -15.92336   11.78492  -13.60145
       H   -19.15196   16.84683  -12.70413
       O   -18.28722   17.24261  -12.51558
      H1   -17.60028   16.59480  -12.83676
       H   -19.54263   11.76513   -3.58103
       O   -18.88514   11.26677   -4.11199
      H1   -19.26783   11.22507   -5.01628
       H   -13.01810   15.09487   -7.61448
       O   -12.68593   15.97338   -7.92293
      H1   -13.22038   16.61522   -7.48196
       H   -14.82297   18.33358  -16.21796
       O   -15.72597   18.24016  -15.79772
      H1   -16.01771   17.33485  -16.01631
       H   -16.33744   15.12080   -8.72124
       O   -16.02309   14.37697   -8.21062
      H1   -15.92387   14.78261   -7.34113
       H   -19.82486   11.34054   -7.11221
       O   -19.03657   10.80998   -6.96122
      H1   -19.52960   10.01657   -6.96680
       H   -17.22728   18.70004  -14.81575
       O   -17.87402   19.25093  -14.38295
      H1   -18.07449   18.64536  -13.62957
       H   -12.54226   16.83440   -9.50996
       O   -12.13700   17.32516  -10.23654
      H1   -12.65596   17.00557  -10.99089
       H   -18.19283   17.42434  -10.93514
       O   -18.06251   17.27069   -9.93086
      H1   -18.33281   18.16934   -9.60965
       H   -13.68916   12.28206   -9.39069
       O   -13.17448   12.23807  -10.24726
      H1   -12.50253   12.92964  -10.13521
       H   -16.43427   18.85408   -4.77323
       O   -16.14845   19.08089   -3.84178
      H1   -16.53976   18.49787   -3.18535
       H   -18.85301   13.76625  -12.56366
       O   -18.06921   14.06928  -12.04843
      H1   -17.53173   13.25716  -12.16929
       H   -17.59808   10.11808  -11.45168
       O   -16.76680   10.32257  -10.96722
      H1   -17.12905   10.94485  -10.31566
       H   -15.90400   11.61784  -11.57419
       O   -15.76173   12.50375  -11.98672
      H1   -14.89640   12.77861  -11.66181
       H   -19.25123   12.07319  -13.97183
       O   -18.77021   12.55528  -14.67129
      H1   -17.90211   12.12409  -14.55930
       H   -14.38398   18.29464   -7.16935
       O   -13.87414   17.87553   -6.48148
      H1   -14.60042   17.30767   -6.21360
       H   -15.49817    9.46315   -9.86682
       O   -14.86883    9.12925   -9.17806
      H1   -14.01496    8.90759   -9.66166
       H   -17.66126   13.85710  -15.46365
       O   -16.76010   14.07063  -15.79412
      H1   -16.92115   14.87196  -16.33772

