90
frame 1 | Written by MDAnalysis XYZWriter (release 2.4.3)
       H     7.09585   -3.41320   -3.59645
       O     6.76422   -4.31320   -3.63755
      H1     6.07575   -4.24804   -4.36085
       H     6.10592    0.96299   -3.53010
       O     5.23297    1.36044   -3.45497
      H1     4.81377    0.47200   -3.44671
       H    -0.58545   -2.44982   -6.23669
       O     0.01919   -3.12940   -5.98301
      H1    -0.04105   -3.63547   -6.79909
       H     1.31626   -5.23587   -1.29846
       O     1.05458   -5.46200   -2.25182
      H1     0.20444   -5.92197   -2.04843
       H     4.54660   -2.93950   -9.23838
       O     4.07158   -3.51773   -8.60657
      H1     3.75947   -2.85823   -7.97112
       H     1.91987   -5.16386   -4.84360
       O     2.58982   -4.47087   -4.71528
      H1     2.88010   -4.56828   -3.77616
       H     4.66493   -3.82002   -1.95547
       O     3.83923   -4.27748   -1.75581
      H1     4.11114   -5.21791   -1.65032
       H     7.57874   -1.76910   -5.28990
       O     7.39553   -1.88186   -6.23296
      H1     6.87008   -2.76062   -6.14776
       H     3.45362   -8.00666   -6.71158
       O     3.20204   -7.94961   -7.63293
      H1     3.82772   -8.64005   -7.93930
       H     4.42971   -8.32945   -0.30085
       O     3.95288   -8.99239    0.22031
      H1     3.09857   -8.52849    0.47438
       H     4.38790   -4.58436   -5.56253
       O     5.09283   -3.99206   -5.67148
      H1     5.62166   -4.31598   -6.40776
       H     5.27513   -7.64336   -6.00814
       O     4.47778   -7.56900   -5.33351
      H1     4.58372   -8.42166   -4.83330
       H     1.95646   -2.81429   -6.52574
       O     2.58650   -2.13404   -6.72372
      H1     3.32719   -2.49054   -6.22561
       H     3.03261   -4.10139   -9.67526
       O     2.24393   -4.57288  -10.06951
      H1     1.66935   -4.59539   -9.28991
       H     7.28477   -6.55376   -0.68473
       O     6.40033   -6.16610   -0.61808
      H1     6.39526   -5.62317    0.18232
       H    -1.92530   -6.36447   -2.89774
       O    -1.24250   -6.56678   -2.26218
      H1    -1.68362   -6.36798   -1.47762
       H     1.46552   -8.04449   -3.57504
       O     1.70679   -7.45130   -4.29783
      H1     1.94645   -8.06674   -5.00640
       H     0.24928   -6.37935   -4.87441
       O    -0.32390   -5.89632   -5.49741
      H1    -0.32973   -5.04210   -5.10416
       H     5.56045   -6.81539   -3.87980
       O     5.89329   -7.29560   -3.09338
      H1     6.14186   -6.55273   -2.54844
       H     3.81099   -1.24941   -2.46142
       O     4.16840   -1.15019   -3.35312
      H1     3.28067   -1.10627   -3.79709
       H    -0.31123   -5.18510   -8.69625
       O     0.42468   -4.85237   -8.13672
      H1     0.47401   -5.46928   -7.39777
       H     2.64855   -3.76786   -0.17442
       O     2.13729   -4.31904    0.45736
      H1     1.39583   -3.67163    0.66307
       H     1.32100   -1.60336   -3.60541
       O     1.65203   -0.97659   -4.30127
      H1     1.82838   -1.50378   -5.13533
       H     0.29113   -3.95115   -3.06363
       O    -0.24107   -3.17349   -3.27283
      H1    -0.06092   -3.07110   -4.20280
       H     2.80036   -6.91189   -2.30641
       O     3.50066   -7.00212   -1.70327
      H1     4.25337   -6.95551   -2.31356
       H     4.43856   -6.84472   -8.12375
       O     5.02590   -6.15968   -8.50045
      H1     4.43607   -5.38737   -8.51335
       H     5.16649   -9.32218   -2.92750
       O     4.78369   -9.91312   -3.59484
      H1     4.23799  -10.59331   -3.18338
       H     1.18543   -7.66075   -0.15606
       O     1.71570   -7.36363    0.64362
      H1     2.10300   -6.58361    0.22476
       H     0.05954   -9.22138   -0.86265
       O     0.37689   -8.62946   -1.53364
      H1    -0.43824   -8.28633   -1.90674
       H    -1.44437   -2.91543   -1.98132
       O    -2.23040   -2.94505   -1.42187
      H1    -2.07783   -2.15350   -0.90981

