90
frame 2 | Written by MDAnalysis XYZWriter (release 2.4.3)
       H   -17.46430   -7.78029   -2.81979
       O   -16.99094   -7.20120   -3.44886
      H1   -16.66599   -7.77862   -4.18719
       H   -18.71949   -8.24922  -14.08446
       O   -18.42382   -7.48770  -13.52101
      H1   -17.74719   -7.01448  -14.00358
       H   -11.53325   -8.92010  -11.04138
       O   -11.98365   -9.47536  -11.69235
      H1   -12.23111  -10.24748  -11.14858
       H   -10.15594   -7.91258   -9.58480
       O   -11.10800   -7.72160   -9.84417
      H1   -11.15198   -6.79580  -10.14152
       H   -13.16051   -3.83958   -8.49582
       O   -12.76593   -2.93475   -8.61559
      H1   -12.60180   -2.76808   -7.68059
       H   -11.21998   -5.96153  -12.28395
       O   -11.80069   -5.66581  -11.54337
      H1   -12.58504   -6.15104  -11.75042
       H   -15.13402   -4.86883   -8.22596
       O   -15.98105   -4.65289   -7.74093
      H1   -16.04457   -3.70676   -7.78580
       H   -16.77206   -7.71647   -9.54332
       O   -16.48060   -8.06701  -10.39835
      H1   -16.03535   -8.90744  -10.06962
       H   -16.65843   -6.36133   -7.93525
       O   -17.02152   -7.27174   -7.89712
      H1   -17.91993   -7.17023   -7.55981
       H   -13.79679   -6.94457   -5.49462
       O   -13.35179   -7.75958   -5.73048
      H1   -13.99304   -8.42691   -5.41824
       H   -15.67159   -1.32962  -10.36026
       O   -16.59504   -1.11306  -10.11360
      H1   -16.99868   -2.02492  -10.11966
       H   -18.81639   -3.07933  -11.74926
       O   -18.46304   -3.32236  -10.88908
      H1   -18.30738   -4.26101  -10.95786
       H   -16.12766   -9.18144  -12.75787
       O   -15.35498   -8.74509  -13.05786
      H1   -15.02798   -8.33920  -12.25130
       H   -14.90938  -10.77541   -9.86835
       O   -15.38311  -10.19997   -9.26166
      H1   -14.76300   -9.77718   -8.59964
       H   -12.39760  -10.56888   -7.67794
       O   -11.93486  -10.86324   -8.49116
      H1   -11.12680  -10.38499   -8.30653
       H   -14.94232  -11.67030  -12.29151
       O   -14.30131  -10.98599  -11.96554
      H1   -14.73449  -10.20765  -12.35309
       H   -16.53558   -1.45143   -8.37166
       O   -16.69246   -2.13093   -7.62611
      H1   -16.11522   -1.65168   -6.94321
       H   -17.69859   -9.61405   -9.72208
       O   -18.55460  -10.01918   -9.86099
      H1   -19.14576   -9.30413   -9.62812
       H   -17.94532  -14.47173   -8.52117
       O   -17.71150  -13.66602   -9.03466
      H1   -16.89854  -13.32215   -8.57751
       H   -15.52257   -2.99001  -13.25696
       O   -15.42852   -3.91726  -12.99333
      H1   -14.89985   -4.36586  -13.68912
       H   -17.95041  -11.37383  -12.34893
       O   -17.53588  -10.53744  -12.37662
      H1   -18.20527   -9.96064  -11.94646
       H   -14.62065   -4.93227   -6.12955
       O   -14.27224   -5.22086   -5.21923
      H1   -13.39839   -4.85483   -5.29499
       H   -13.13236   -8.07476   -7.20067
       O   -13.31315   -8.28765   -8.13824
      H1   -12.38913   -8.22619   -8.49963
       H   -15.43336   -6.31447  -15.18496
       O   -16.05631   -7.10120  -15.15466
      H1   -15.64407   -7.58490  -14.44631
       H   -14.20532  -11.97245   -6.54104
       O   -13.81949  -11.10766   -6.31606
      H1   -14.40713  -10.79699   -5.66951
       H   -17.43646  -10.91094   -7.08764
       O   -17.35837   -9.96163   -6.81255
      H1   -16.85860   -9.56818   -7.59571
       H   -14.16693   -5.56084   -9.76094
       O   -13.58177   -5.45737   -8.97303
      H1   -13.34294   -6.39639   -8.70731
       H   -15.70110   -9.99911   -4.08837
       O   -15.54823   -9.28580   -4.79323
      H1   -16.20382   -9.63646   -5.46506
       H   -15.67314   -6.56255  -11.00667
       O   -14.88159   -6.09045  -11.32683
      H1   -15.26575   -5.42774  -11.87742
       H   -19.89603   -5.65464  -11.58169
       O   -19.22973   -6.10957  -11.00254
      H1   -18.88403   -6.82872  -11.49513

