90
frame 2 | Written by MDAnalysis XYZWriter (release 2.4.3)
       H    -3.71188  -16.57368   -5.62551
       O    -3.67191  -15.63124   -5.71288
      H1    -3.08684  -15.35494   -5.00327
       H    -2.34904  -15.52083   -9.83598
       O    -1.70609  -14.86484  -10.19690
      H1    -2.28330  -14.08532  -10.13685
       H     2.48245  -15.80751   -9.88967
       O     1.71945  -15.90789   -9.31909
      H1     1.94601  -15.53787   -8.45100
       H    -2.28137  -15.99525  -15.24453
       O    -1.31626  -16.18524  -15.46913
      H1    -0.94219  -16.09536  -14.59261
       H    -0.89217  -11.05916   -8.33866
       O    -1.57491  -11.19536   -9.02048
      H1    -2.05818  -11.97060   -8.67244
       H    -5.70188  -18.06633  -10.92113
       O    -5.96334  -18.68010  -10.24919
      H1    -5.12222  -19.01791   -9.88842
       H     1.22645  -16.11205  -14.18545
       O     0.65761  -15.88669  -13.42111
      H1     0.76480  -14.90930  -13.30710
       H     2.41195  -14.10682   -6.81042
       O     2.01928  -14.97368   -6.73248
      H1     1.00836  -14.85928   -6.79067
       H    -6.39208  -14.65135   -8.25764
       O    -7.28190  -14.37375   -8.02358
      H1    -7.23953  -13.38956   -7.81970
       H    -4.10701  -15.43994  -13.34051
       O    -3.39860  -15.83880  -13.83643
      H1    -3.40520  -16.68026  -13.41730
       H    -2.44353  -14.37438  -13.12373
       O    -2.57169  -13.41645  -12.94219
      H1    -1.70016  -13.33220  -12.52152
       H    -4.88273  -11.94608  -10.07034
       O    -5.19220  -11.23861   -9.39730
      H1    -5.28825  -10.47684   -9.91714
       H    -5.22269  -13.45411  -11.32363
       O    -4.29487  -13.15820  -11.00502
      H1    -3.87734  -13.25469  -11.89146
       H    -7.34321  -14.23578  -11.11701
       O    -6.95321  -13.63412  -10.47183
      H1    -7.38002  -13.91957   -9.65323
       H    -0.22635  -17.95052   -9.17191
       O    -0.93483  -17.57430   -8.53817
      H1    -0.60926  -16.68415   -8.37559
       H    -8.42380  -17.15010   -9.02963
       O    -7.77262  -17.66145   -8.57482
      H1    -7.11425  -17.79904   -9.28392
       H    -2.97019  -12.61085   -6.75279
       O    -2.43461  -13.15189   -7.34127
      H1    -3.13359  -13.71081   -7.64151
       H     2.23768  -18.49390  -11.60022
       O     3.12738  -18.69334  -11.88540
      H1     3.69159  -18.74161  -11.13503
       H     0.21167  -19.03250  -11.48422
       O     0.42500  -18.33896  -10.88939
      H1     0.15038  -17.54500  -11.35164
       H    -4.20044  -18.68144   -5.70709
       O    -4.25494  -18.08555   -6.44321
      H1    -5.20872  -17.90055   -6.39926
       H     0.44297  -12.36379  -12.26461
       O     0.33533  -13.33495  -12.15007
      H1     0.09380  -13.36977  -11.20546
       H    -0.95252  -15.68314   -5.93795
       O    -0.59549  -15.40572   -6.78778
      H1    -1.22506  -14.76709   -7.19445
       H    -7.32605  -17.30198   -6.91801
       O    -6.75374  -17.22423   -6.09999
      H1    -6.83943  -16.22341   -5.97368
       H    -1.54677  -17.85842  -15.57979
       O    -1.59767  -18.82734  -15.66085
      H1    -1.33657  -19.12612  -14.73317
       H    -4.19894  -15.47256   -8.63287
       O    -4.44425  -14.54657   -8.64094
      H1    -4.37347  -14.37171   -9.60151
       H    -3.79805  -17.59611   -8.65190
       O    -3.58913  -17.15064   -9.47322
      H1    -2.63272  -17.21072   -9.45814
       H    -0.51154  -18.60410   -7.36768
       O    -0.18597  -19.45426   -6.90269
      H1     0.26286  -19.83879   -7.70433
       H    -1.93758  -19.33665   -4.11998
       O    -1.13507  -19.08971   -3.61966
      H1    -0.41922  -19.27428   -4.23996
       H    -5.31772  -15.32254   -4.84737
       O    -6.27028  -14.99108   -4.73673
      H1    -6.41433  -15.28485   -3.79744
       H    -3.20368  -19.60895  -12.98346
       O    -3.17673  -18.62623  -12.98259
      H1    -2.26433  -18.44410  -12.75317

