90
frame 2 | Written by MDAnalysis XYZWriter (release 2.4.3)
       H    -1.36999   16.60324  -14.77329
       O    -0.49422   16.91117  -14.97539
      H1    -0.00641   16.51044  -14.24590
       H    -4.40670    5.72940  -18.30941
       O    -3.64799    5.39256  -18.79906
      H1    -3.18811    4.90921  -18.05689
       H    -3.90489    7.40001  -15.41155
       O    -4.62324    8.02501  -15.52475
      H1    -5.42646    7.52385  -15.27557
       H    -3.59050   15.47927  -12.87611
       O    -3.84779   14.65810  -12.49726
      H1    -4.30184   14.33432  -13.29686
       H     1.06001   12.90474  -17.33425
       O     0.91181   13.83176  -17.00330
      H1     1.71489   14.10485  -16.60099
       H    -1.64813   11.25566  -19.12575
       O    -1.49873   11.25089  -18.19049
      H1    -2.44671   11.17121  -17.93278
       H     3.14948   11.71297  -17.07747
       O     2.62440   11.66940  -16.26995
      H1     1.95743   10.95770  -16.39187
       H    -4.92641   10.66994  -17.35293
       O    -5.35509   11.55338  -17.05102
      H1    -6.28057   11.22011  -16.87369
       H     2.07777   11.69737  -13.44123
       O     1.29302   12.19340  -13.78146
      H1     1.45449   12.37178  -14.68745
       H    -5.44065   11.96480  -18.75553
       O    -5.71722   12.67363  -19.43822
      H1    -6.65334   12.41212  -19.61407
       H     0.28941    9.82817  -12.20781
       O     1.00026   10.02088  -11.59216
      H1     0.86716    9.40999  -10.86487
       H     4.01063    6.42674  -19.31865
       O     3.17017    6.52858  -19.77833
      H1     2.70603    7.29101  -19.40627
       H    -1.41892    7.61956  -18.06244
       O    -1.79161    8.03234  -17.25279
      H1    -1.83700    8.98441  -17.41455
       H    -6.50660    8.60913  -18.92655
       O    -7.35533    8.13724  -19.04040
      H1    -7.76790    8.26510  -18.13549
       H     1.22933    8.21832  -14.92715
       O     2.11223    8.44286  -14.75283
      H1     2.09148    9.29827  -15.17326
       H     0.97052   15.07703  -18.42603
       O     0.65167   15.67198  -19.19073
      H1    -0.32112   15.42307  -19.15233
       H    -3.90811   12.75282  -14.54363
       O    -4.11160   13.52737  -15.06531
      H1    -4.52214   13.14941  -15.92017
       H    -0.31000   11.26192  -13.87252
       O    -0.83960   10.50409  -13.50760
      H1    -1.66358   10.91350  -13.23198
       H    -6.60659    5.85275  -17.97939
       O    -5.90858    6.33924  -17.51192
      H1    -6.06082    7.18127  -17.93419
       H    -3.93936   10.39122  -13.10084
       O    -4.29559   10.68396  -13.96782
      H1    -4.32117    9.78611  -14.38975
       H    -1.00545    8.05497  -15.59249
       O    -0.59301    7.75237  -14.77679
      H1    -1.01783    8.31960  -14.13943
       H     1.03998    9.45998  -17.61685
       O     0.51987    9.96250  -16.95004
      H1    -0.15346   10.39431  -17.49889
       H    -4.04037    8.63374  -18.84033
       O    -4.65182    9.10827  -18.17951
      H1    -4.53836    8.62149  -17.38779
       H    -3.73990   15.38785  -15.14170
       O    -3.25149   16.18117  -14.89582
      H1    -3.76506   16.78576  -15.43913
       H    -2.67447   14.68503  -17.45216
       O    -1.73524   14.83481  -17.62425
      H1    -1.26263   14.06787  -17.18115
       H     1.86917    9.42572  -19.66980
       O     2.21860    8.90236  -18.95067
      H1     3.10403    9.35522  -18.93063
       H    -5.65986   15.73410  -18.33134
       O    -5.41369   14.94400  -17.76536
      H1    -5.67209   14.18360  -18.25060
       H     0.22786   16.87910  -18.20744
       O    -0.14941   17.63520  -17.68666
      H1    -0.39042   17.21432  -16.82440
       H    -3.78340    4.89962  -14.69627
       O    -3.48228    5.56854  -15.36244
      H1    -2.51549    5.53264  -15.34741
       H     3.91998   12.52717  -15.40238
       O     4.37281   13.09413  -14.77447
      H1     5.06052   12.46334  -14.51574

