90
frame 1 | Written by MDAnalysis XYZWriter (release 2.4.3)
       H    -0.75759    2.23725   12.28588
       O    -1.25014    2.96042   12.72371
      H1    -1.02592    3.78933   12.32566
       H     6.09292    3.28297   17.25602
       O     5.91055    4.25395   17.31433
      H1     5.51577    4.34803   18.22696
       H     4.92069    8.64336   14.33197
       O     4.55671    8.06049   15.02548
      H1     4.59000    7.24611   14.47683
       H    -5.31940    5.02210   16.68528
       O    -5.25505    5.38606   17.62319
      H1    -4.37154    5.15602   17.89411
       H    -2.29154    4.07743   18.60896
       O    -2.03257    4.35775   17.74207
      H1    -1.25779    3.82356   17.64769
       H     0.29176    3.07134   16.19155
       O    -0.29409    2.39208   16.58231
      H1    -0.74621    1.99771   15.85607
       H     0.50157   11.41306   13.49705
       O     0.37926   11.85176   12.67030
      H1     0.88325   11.35205   12.06876
       H     2.37241    9.50656   13.10148
       O     3.14245   10.08061   12.94236
      H1     3.12897   10.67181   13.67134
       H     3.44718   10.17947   17.77205
       O     4.06033   10.95746   17.62227
      H1     3.79907   11.34116   16.74399
       H    -3.54159    7.71536   18.49319
       O    -3.01178    7.55283   19.34075
      H1    -3.12421    6.61098   19.58745
       H     3.23375    6.22030   11.69491
       O     3.48222    6.82025   12.37330
      H1     2.69336    7.23144   12.70625
       H    -2.16967   10.26091   18.80904
       O    -2.78352   10.87564   19.19196
      H1    -2.15479   11.58432   19.40796
       H     4.36157    5.15634   15.75006
       O     3.47612    5.04762   16.14221
      H1     3.61892    4.81655   17.09484
       H     0.17996    7.07254   15.93058
       O    -0.12825    7.32890   15.07310
      H1    -0.98054    6.90978   15.22746
       H     1.26455   11.23919   15.39692
       O     0.56434   10.57007   15.28748
      H1     0.90261    9.75707   15.67879
       H     0.55498    5.67492   15.08855
       O     0.94140    4.81353   15.36241
      H1     1.79009    5.09952   15.74462
       H     3.62623    6.64219   18.68064
       O     2.69473    6.81862   18.48345
      H1     2.38209    6.94383   19.34226
       H    -0.69532    5.95665   17.84528
       O    -0.30088    6.81116   17.79621
      H1     0.55481    6.55285   18.15393
       H     2.41187    8.13751   17.33131
       O     2.38323    8.78601   16.62869
      H1     3.15874    8.50624   16.07961
       H     1.44331    1.09546   18.70875
       O     0.86370    0.52071   18.25480
      H1     0.40268    1.12280   17.68596
       H     2.67659    2.00144   16.63130
       O     3.47679    2.44053   16.85550
      H1     3.62560    3.12093   16.17979
       H    -3.42794    5.56365   13.52973
       O    -3.86818    4.89781   13.01651
      H1    -4.61895    5.35735   12.65872
       H     0.45637    9.95966   17.69304
       O    -0.25456    9.81615   18.35790
      H1    -0.53651    8.92797   18.16351
       H    -2.38470    5.68656   15.77914
       O    -2.53108    6.33569   15.10390
      H1    -2.96112    7.10387   15.51549
       H     1.25051   12.46945   18.11573
       O     0.99078   12.61744   17.18228
      H1     0.97265   13.56831   17.08657
       H     0.35204    8.48517   12.11992
       O     0.98876    8.32216   12.79068
      H1     0.42774    8.00739   13.51194
       H    -2.27541   10.86425   14.63112
       O    -2.27657   11.08099   15.57590
      H1    -1.35421   10.85471   15.77367
       H    -3.34678    9.37643   16.38679
       O    -3.57915    8.56188   16.71163
      H1    -4.52961    8.57595   16.51268
       H     2.30979    2.48923   13.33215
       O     1.95533    3.30897   13.07919
      H1     1.29634    3.51737   13.73643
       H     1.67247    3.55856   19.46358
       O     1.25431    4.40892   19.24826
      H1     1.94754    4.82052   18.71041

