90
frame 2 | Written by MDAnalysis XYZWriter (release 2.4.3)
       H    10.38038   14.50141   13.11683
       O    10.12015   13.91535   12.33224
      H1     9.20924   14.18718   12.32776
       H    12.40791   14.14361   17.93049
       O    13.26658   14.10302   18.29981
      H1    13.50861   15.09094   18.46949
       H    17.85446   11.72679   11.68247
       O    17.93064   11.56574   12.66457
      H1    17.63252   10.63417   12.62113
       H    17.51898   15.78131   11.98537
       O    17.40760   15.44920   11.07401
      H1    17.38536   16.23159   10.47930
       H    14.25727    9.78428   14.96749
       O    14.81328    9.62394   14.11424
      H1    15.18734    8.80326   14.35452
       H    13.82525   12.88247   11.72391
       O    14.01051   12.80622   10.79677
      H1    14.98557   12.69192   10.83816
       H    10.62755   15.63300   11.31741
       O    10.72701   16.58898   11.49754
      H1    10.45250   16.80554   12.44627
       H    11.39314   15.11150   15.09119
       O    11.64253   15.10661   14.09298
      H1    11.47308   15.99410   13.79407
       H    17.44520   18.76026   10.53784
       O    18.17721   18.89799    9.88221
      H1    17.93330   19.76365    9.45287
       H    18.44234   15.99954   13.91784
       O    17.74383   16.61994   13.76952
      H1    16.99235   15.97084   13.76887
       H    17.98787   16.17059   18.10051
       O    18.92603   16.06211   17.83392
      H1    19.32174   16.53668   18.61001
       H    13.51587   17.28794   18.20127
       O    13.64586   16.74654   19.02481
      H1    14.59733   16.81654   18.97918
       H    17.60888   13.28784   16.18764
       O    17.50766   13.87761   16.99523
      H1    18.10918   14.60970   16.79566
       H    18.25375   10.49678   17.76957
       O    17.69095   11.15756   18.24433
      H1    17.18138   11.47728   17.48660
       H    16.22083   19.14123   12.54320
       O    15.90453   18.68239   11.75466
      H1    14.98888   18.93804   11.77558
       H    14.09961   14.67768   10.53173
       O    14.41445   15.55890   10.76746
      H1    15.38490   15.40187   10.71525
       H    13.29209   11.43922   15.92652
       O    12.81556   10.61752   15.69565
      H1    11.85488   10.75786   15.97996
       H    10.90232   15.75323   17.26132
       O    10.93338   14.88030   16.77592
      H1    10.06895   14.50024   17.17185
       H    17.28211   13.53979   10.43612
       O    16.98249   12.61021   10.37866
      H1    17.09265   12.40456    9.44146
       H    16.22292   10.80745   15.30559
       O    16.68575   11.66028   15.39793
      H1    17.01087   11.67938   14.50811
       H    12.48279   19.50827   17.69377
       O    12.72476   18.73054   17.12781
      H1    13.65318   19.06635   16.91492
       H    16.41174   18.65389   16.04280
       O    15.46257   18.69347   16.07344
      H1    15.26843   19.46719   15.52672
       H    13.30794   17.18905   10.28165
       O    12.70146   17.79395    9.75642
      H1    12.24449   17.27357    9.10535
       H    12.90949   13.48373   13.94760
       O    13.15138   12.71496   13.35439
      H1    13.92481   12.33001   13.85621
       H    14.55182   15.04243    7.27951
       O    14.60772   14.30647    7.90019
      H1    14.42283   14.74602    8.72485
       H    16.30820   17.79388   18.94138
       O    16.23403   16.79568   18.87047
      H1    16.49547   16.54718   19.75145
       H    14.25272   13.29928   16.91973
       O    14.27207   12.94108   16.01341
      H1    15.20702   12.67313   16.02508
       H    14.72084   15.16231   13.03914
       O    15.41901   15.14703   13.72274
      H1    14.95750   15.16970   14.56028
       H    17.93129   16.98993    8.67502
       O    17.15256   16.45645    8.40773
      H1    17.48454   15.94481    7.64264
       H    17.98116   17.67478   15.33447
       O    18.18295   18.19745   16.12872
      H1    18.26104   17.49035   16.82621

