90
frame 2 | Written by MDAnalysis XYZWriter (release 2.4.3)
       H     6.99413    4.90811  -18.90955
       O     6.04355    5.11367  -19.00567
      H1     5.66850    4.50961  -18.33832
       H     3.99462    7.50205  -13.73572
       O     4.49273    7.88160  -13.00098
      H1     4.14094    8.79157  -12.99790
       H    10.14423   12.83195  -17.41519
       O    10.43780   13.12421  -16.55968
      H1    11.30406   12.60867  -16.50721
       H     3.49957   16.26571  -17.49668
       O     3.96035   16.87490  -18.09102
      H1     3.45608   16.88415  -18.90210
       H     2.65191   10.05792  -12.47955
       O     3.31997   10.51691  -13.03105
      H1     3.98971   10.75541  -12.32675
       H     7.48414   11.58608  -16.95997
       O     6.93069   10.92543  -17.47981
      H1     6.07256   11.37418  -17.69573
       H     7.09993   10.53372  -13.76159
       O     6.64859   11.03114  -14.45504
      H1     6.97205   10.61155  -15.25051
       H     7.45266   14.78804  -19.57645
       O     7.10919   15.58020  -19.01484
      H1     7.89801   16.14526  -19.12132
       H    10.56128    9.76822  -17.23631
       O    10.61505    9.37992  -18.11818
      H1    10.46540   10.19602  -18.67537
       H     7.65763   12.56428  -15.17649
       O     7.91334   12.99461  -16.02284
      H1     8.90871   13.03951  -15.96162
       H     1.06001   12.90474  -17.33425
       O     0.91181   13.83176  -17.00330
      H1     1.71489   14.10485  -16.60099
       H    -1.64813   11.25566  -19.12575
       O    -1.49873   11.25089  -18.19049
      H1    -2.44671   11.17121  -17.93278
       H     9.45612    7.67097  -16.31169
       O     8.83615    7.48517  -17.04259
      H1     9.11269    8.17567  -17.70895
       H     3.14948   11.71297  -17.07747
       O     2.62440   11.66940  -16.26995
      H1     1.95743   10.95770  -16.39187
       H     2.07777   11.69737  -13.44123
       O     1.29302   12.19340  -13.78146
      H1     1.45449   12.37178  -14.68745
       H     4.87854    6.96637  -15.96560
       O     3.93427    6.85894  -16.22035
      H1     3.53189    7.53795  -15.64448
       H     4.01063    6.42674  -19.31865
       O     3.17017    6.52858  -19.77833
      H1     2.70603    7.29101  -19.40627
       H     6.61179    6.08586  -15.03300
       O     6.60252    6.99689  -15.37534
      H1     7.17623    6.87584  -16.20940
       H     1.22933    8.21832  -14.92715
       O     2.11223    8.44286  -14.75283
      H1     2.09148    9.29827  -15.17326
       H     1.17671    5.32679  -17.47170
       O     1.63988    5.23205  -16.64632
      H1     2.21399    5.97152  -16.47056
       H     5.00900    4.31306  -16.01278
       O     5.30745    3.81091  -16.79745
      H1     4.80134    3.05197  -16.88175
       H     0.97052   15.07703  -18.42603
       O     0.65167   15.67198  -19.19073
      H1    -0.32112   15.42307  -19.15233
       H    10.52035    9.04028  -14.72903
       O    10.17482    9.60964  -15.48625
      H1    10.25461   10.51659  -15.19270
       H     4.58734   13.46326  -18.48392
       O     4.93458   12.80563  -17.81118
      H1     5.40407   13.47147  -17.23378
       H     3.78168   14.66748  -15.51628
       O     3.10456   15.29090  -15.82847
      H1     3.48272   16.19594  -15.61903
       H     1.03998    9.45998  -17.61685
       O     0.51987    9.96250  -16.95004
      H1    -0.15346   10.39431  -17.49889
       H     1.86917    9.42572  -19.66980
       O     2.21860    8.90236  -18.95067
      H1     3.10403    9.35522  -18.93063
       H     4.79309    9.96734  -19.46571
       O     4.82292    9.11307  -18.96721
      H1     4.85441    8.51558  -19.71750
       H     6.80263   15.33745  -17.41834
       O     6.38920   15.31568  -16.50167
      H1     6.82701   14.53153  -16.11216
       H     3.91998   12.52717  -15.40238
       O     4.37281   13.09413  -14.77447
      H1     5.06052   12.46334  -14.51574

