90
frame 2 | Written by MDAnalysis XYZWriter (release 2.4.3)
       H     7.01859    2.16374   -3.68449
       O     6.08004    2.34506   -3.60671
      H1     5.69555    1.49113   -3.83581
       H     6.68909    3.68134   -5.89203
       O     7.03528    4.25842   -5.20123
      H1     6.59398    3.89016   -4.42481
       H     5.95405    8.79141   -3.63994
       O     5.53436    8.04434   -4.15943
      H1     4.60886    8.32895   -4.32437
       H    -0.83805    5.59677   -2.66774
       O    -0.05745    5.15018   -3.08365
      H1     0.56583    5.08533   -2.34508
       H     8.65613    4.71433   -4.63767
       O     9.42809    4.92159   -4.08311
      H1    10.04242    5.17468   -4.81109
       H    10.50652    7.34187   -4.44133
       O     9.67301    7.57997   -3.91541
      H1     9.27601    6.70343   -3.90614
       H     6.10824    6.20924    1.76627
       O     5.98322    5.84700    2.69492
      H1     5.38114    5.07700    2.46350
       H     4.83021   11.26148    0.28393
       O     4.88243   11.59102   -0.58835
      H1     5.77780   12.01240   -0.58441
       H     6.10993    7.70514   -6.02578
       O     6.03815    7.77531   -6.97419
      H1     6.64243    7.05911   -7.27089
       H     4.50793    9.67634    2.67644
       O     4.35157   10.28618    1.89863
      H1     3.34767   10.34045    1.93814
       H     6.55150    1.77181   -0.20589
       O     5.82793    2.13392   -0.78119
      H1     6.11579    1.98371   -1.73575
       H     5.00055    6.37027   -2.59511
       O     4.86664    5.85045   -1.81244
      H1     5.67015    5.98544   -1.37781
       H     9.38050    4.52029    0.71950
       O     9.40392    5.40690    0.31140
      H1    10.35977    5.46244    0.35820
       H    10.73979    3.39155   -1.66234
       O    11.05569    3.13142   -2.54749
      H1    10.43532    3.57251   -3.09393
       H     6.90680    7.61812   -0.01700
       O     6.80235    6.65077    0.02904
      H1     7.68660    6.30250    0.19691
       H     7.69881    7.79909    3.77786
       O     8.25646    6.97904    3.85622
      H1     7.71248    6.30992    3.31059
       H     3.66792    3.66200    3.45803
       O     4.54992    3.27261    3.29896
      H1     4.97455    3.56641    4.09093
       H     9.06420    3.03329    2.34162
       O     8.57796    2.97455    1.54138
      H1     7.71394    2.60974    1.88285
       H     3.02137    7.30492    1.14153
       O     2.90113    6.44487    1.58617
      H1     2.97303    6.54198    2.54695
       H     1.87341    4.53761   -0.70035
       O     1.17900    5.13262   -0.38036
      H1     1.52206    5.55889    0.43532
       H     1.97757    2.47613   -0.10259
       O     1.69136    2.07281    0.75536
      H1     1.31294    1.29405    0.38734
       H     9.30926    9.91531   -1.72424
       O     9.90619    9.85501   -1.00430
      H1    10.53520   10.61226   -1.10379
       H     7.83545    9.68788   -3.33334
       O     7.66454    9.03663   -2.60788
      H1     8.41404    8.38300   -2.69946
       H     6.02166    8.84406   -1.89671
       O     5.26990    8.83241   -1.28181
      H1     5.11160    9.79251   -1.10621
       H     8.69396    9.34030    0.32015
       O     8.02731    9.31951    1.04188
      H1     7.63316   10.20045    0.85663
       H     3.86038    7.91754   -0.88805
       O     2.91946    7.75137   -0.67981
      H1     2.98597    6.80853   -0.53220
       H     3.91222    4.20977   -1.17081
       O     3.21187    3.56070   -1.10075
      H1     3.77692    3.00318   -0.54245
       H     3.77198   -0.14161   -0.33518
       O     3.90619    0.33654   -1.11318
      H1     4.52704    1.00241   -0.81752
       H     0.86984    7.70712   -3.43019
       O     0.94511    8.35158   -2.71997
      H1     1.45723    7.79905   -2.15375
       H     3.17746    8.08193   -6.18826
       O     3.16815    8.68890   -5.41968
      H1     2.52477    8.22445   -4.85290

