90
frame 4 | Written by MDAnalysis XYZWriter (release 2.4.3)
       H    -7.90192   -4.94860   18.35546
       O    -7.88506   -5.17612   19.28625
      H1    -7.13912   -5.76099   19.36123
       H    -9.30220   -8.37557   16.95229
       O    -9.47468   -9.23270   16.48341
      H1    -9.89624   -8.88666   15.70103
       H    -0.44103   -1.82525   17.53648
       O     0.17195   -2.24039   16.92505
      H1     0.16300   -3.12676   17.29181
       H    -4.26866   -5.15072   13.65292
       O    -5.00192   -4.91187   13.04944
      H1    -5.04559   -5.55050   12.35303
       H    -3.45747  -13.41136   19.45250
       O    -4.12253  -12.83444   19.10947
      H1    -4.11640  -12.91436   18.14561
       H    -2.50591   -9.50006   13.34035
       O    -1.72451   -9.89368   12.81105
      H1    -2.17504  -10.52251   12.18312
       H    -6.62620   -8.29601   15.11847
       O    -6.84949   -7.40047   14.88318
      H1    -7.43908   -7.54291   14.10769
       H    -1.14536   -4.20871   13.91557
       O    -2.08889   -4.49700   13.98400
      H1    -2.08366   -4.56504   14.99266
       H    -5.51319  -13.10608   16.64244
       O    -4.98715  -12.59725   16.04932
      H1    -4.29424  -13.26821   15.79594
       H    -2.21804   -8.77609   16.78733
       O    -2.52550   -9.42907   17.45369
      H1    -1.99382   -9.24572   18.26796
       H    -0.57248  -11.85250   16.63588
       O    -1.13595  -11.32735   15.98374
      H1    -1.72073  -10.84956   16.62293
       H    -6.68328   -8.60369   18.32596
       O    -6.59973   -9.18503   19.08637
      H1    -6.91006  -10.06376   18.64944
       H    -1.92520   -7.21444   12.35492
       O    -2.18574   -7.01191   13.20866
      H1    -1.97752   -6.10329   13.46435
       H    -1.18689   -7.63016   14.66883
       O    -1.06943   -8.29071   15.38047
      H1    -0.87355   -9.16212   15.05423
       H     2.83355   -9.10741   19.49613
       O     1.91604   -9.38550   19.30208
      H1     1.76423   -9.16027   18.36985
       H    -1.73975   -0.40887   18.83848
       O    -1.74337   -1.40084   18.82831
      H1    -1.43158   -1.68627   19.69894
       H    -6.21740  -10.64577   16.47965
       O    -6.43786   -9.87604   15.93753
      H1    -7.38385   -9.69405   16.09165
       H    -2.11093   -5.59096   19.84485
       O    -2.67299   -5.35146   19.11983
      H1    -3.29137   -4.62363   19.33340
       H    -4.72323   -8.72612   14.23643
       O    -4.07004   -8.99114   13.61416
      H1    -3.65794   -8.11808   13.42434
       H    -0.51255   -7.74934   18.60522
       O    -0.65707   -8.28931   19.40463
      H1     0.21605   -8.73787   19.51670
       H    -2.23029   -4.52191   17.49068
       O    -1.78006   -4.35643   16.60875
      H1    -1.72353   -3.40222   16.49130
       H    -0.39780   -5.86166   17.12619
       O    -0.00429   -6.75886   17.29478
      H1    -0.42544   -7.36150   16.68969
       H    -7.56390   -4.42459   15.98249
       O    -7.58744   -5.28123   16.43054
      H1    -7.36127   -5.94073   15.78255
       H    -9.35654   -6.63703   18.43347
       O    -9.51166   -6.67794   17.45499
      H1    -8.85188   -6.13911   17.03940
       H    -3.83438   -8.43251   17.90345
       O    -4.30290   -7.62030   18.01670
      H1    -3.60290   -7.09055   18.41814
       H    -3.26735   -2.52657   19.15072
       O    -4.07764   -3.03933   18.96869
      H1    -4.23299   -2.73554   18.04538
       H    -5.15554   -6.33187   15.04561
       O    -4.28590   -6.25799   15.52587
      H1    -4.35341   -6.75128   16.33654
       H    -7.80629  -12.12437   17.79170
       O    -7.06237  -11.75646   18.24957
      H1    -6.85914  -12.32395   19.01604
       H     1.71115   -5.44960   17.19546
       O     2.09763   -4.73256   16.73332
      H1     1.65809   -4.64021   15.88067
       H     1.95995   -8.11837   15.84160
       O     2.35603   -8.61686   16.58407
      H1     2.59347   -7.96188   17.26629

