90
frame 2 | Written by MDAnalysis XYZWriter (release 2.4.3)
       H   -16.29788    6.55210   -4.51291
       O   -16.82647    6.28702   -3.74429
      H1   -16.04181    6.05125   -3.17670
       H   -12.79120    9.32512   -2.10603
       O   -12.30996    8.54351   -2.37253
      H1   -12.83333    8.13225   -3.03407
       H   -14.89708    2.43021    0.87367
       O   -14.95914    1.47290    0.68500
      H1   -15.85952    1.36276    1.04638
       H   -13.67225    6.42050   -4.18631
       O   -13.29500    5.58702   -4.49345
      H1   -13.65721    5.67066   -5.33791
       H   -10.28281    8.05054    1.10339
       O   -11.09513    8.46529    0.81301
      H1   -11.67686    7.71193    0.76116
       H   -16.03285    6.98627    5.20861
       O   -15.45275    6.93897    5.98793
      H1   -15.48404    7.85059    6.33360
       H   -11.11640    6.07906    2.85293
       O   -10.55884    5.47189    2.29942
      H1   -11.33016    5.07022    1.79660
       H   -18.75721   10.13148    3.41398
       O   -18.92886    9.19854    3.43390
      H1   -19.32773    9.04433    2.56131
       H   -16.72330    9.92686   -3.25917
       O   -15.99342    9.72833   -2.65660
      H1   -15.29720    9.40666   -3.22882
       H   -16.53432    7.71945   -6.73699
       O   -16.60594    8.21778   -5.89857
      H1   -17.59629    8.07177   -5.77859
       H   -18.93637   11.23388   -3.05571
       O   -18.29219   10.86418   -3.67211
      H1   -18.70679   11.02033   -4.53570
       H   -18.27976    3.83634    2.60591
       O   -18.44234    3.66475    1.66696
      H1   -17.95023    2.83108    1.50464
       H   -15.56641    9.42144   -0.74406
       O   -14.97671    9.33190    0.06337
      H1   -15.42266    9.67356    0.81604
       H   -15.57891   12.68398   -0.90045
       O   -16.10215   12.89769   -0.10823
      H1   -15.62557   13.73654    0.06963
       H   -16.48187    4.54057    1.08127
       O   -15.57166    4.49642    1.40662
      H1   -15.11286    5.21003    1.01171
       H   -16.00980   11.76705    1.54628
       O   -16.27344   10.92599    1.92801
      H1   -16.05797   11.10012    2.85275
       H   -15.90024    4.03498    4.24953
       O   -14.99169    3.94344    3.92798
      H1   -15.18221    4.18980    2.99027
       H   -17.99119    9.26425    0.11047
       O   -18.32159   10.17213    0.19700
      H1   -17.88724   10.45265    1.05514
       H   -15.78001    2.05579   -2.92297
       O   -15.91186    2.83197   -3.40650
      H1   -16.87880    2.81889   -3.64173
       H   -15.53487    6.72543    2.92000
       O   -16.42330    6.91285    3.28640
      H1   -16.65324    7.57143    2.72010
       H   -16.61280    7.09501   -0.13428
       O   -17.41451    7.43676    0.29868
      H1   -18.15834    6.88592    0.02993
       H   -13.97703    6.46057    0.08987
       O   -14.18983    6.89272    0.92406
      H1   -14.45666    7.82371    0.65787
       H   -18.35665    7.67890   -3.66640
       O   -19.09015    8.24014   -3.78715
      H1   -18.78707    9.09992   -3.66077
       H   -13.37675    8.90683   -4.66232
       O   -14.20528    8.36417   -4.46631
      H1   -14.75679    8.44839   -5.23456
       H   -12.30082    3.93315   -1.01708
       O   -12.38479    4.77032   -1.51251
      H1   -12.38013    4.31993   -2.38903
       H   -14.32134    4.76107   -1.54566
       O   -15.23892    5.04164   -1.78202
      H1   -15.50719    4.39094   -2.50605
       H   -13.45287   10.53329   -0.17543
       O   -13.12802   11.20063   -0.87373
      H1   -12.17000   11.11705   -0.71280
       H   -19.23344    3.86242   -3.17198
       O   -18.77997    4.01653   -3.95860
      H1   -18.28104    4.90136   -3.74856
       H   -19.04605    5.06441    0.71504
       O   -19.47610    5.53451   -0.03095
      H1   -20.15791    6.08781    0.43765
       H   -17.80239    4.06323    5.41718
       O   -17.83970    4.51189    4.50674
      H1   -18.36163    5.28805    4.75776

