90
frame 1 | Written by MDAnalysis XYZWriter (release 2.4.3)
       H   -13.67962   -0.08652  -10.61922
       O   -13.98246    0.76812  -10.28684
      H1   -13.62840    1.35330  -11.04077
       H   -11.53126    8.05552  -10.89564
       O   -11.15146    7.33382  -10.34583
      H1   -10.66359    7.95948   -9.81858
       H   -12.89575    3.56423  -11.31335
       O   -13.11072    2.83545  -12.00126
      H1   -13.78269    3.33820  -12.52489
       H   -13.48857    4.85799   -8.34723
       O   -14.12542    5.20641   -7.68664
      H1   -14.67947    5.79471   -8.23907
       H   -14.59396    1.35823   -6.96285
       O   -14.05090    1.86002   -7.56748
      H1   -14.22874    1.34461   -8.36733
       H   -15.44610    3.40354  -13.00558
       O   -15.76354    2.50098  -13.04347
      H1   -16.11451    2.32976  -12.11682
       H   -11.45942   -1.15922  -15.40811
       O   -11.87134   -0.80947  -16.23905
      H1   -12.68044   -0.34136  -16.03924
       H   -16.16901    5.64753  -14.06769
       O   -16.76847    6.27877  -14.54075
      H1   -17.59073    5.87384  -14.33946
       H   -13.72163    5.24464  -13.61683
       O   -14.54551    4.76778  -13.81780
      H1   -14.37063    4.52406  -14.73638
       H   -18.00239    2.90638  -10.54895
       O   -17.47011    2.15618  -10.85227
      H1   -17.41608    1.71392   -9.95717
       H   -16.69341   -0.81999  -12.39004
       O   -16.54382   -1.02549  -13.36096
      H1   -16.93112   -0.25321  -13.83935
       H   -15.83567    7.55315   -9.09149
       O   -16.06100    6.59998   -9.05124
      H1   -16.92102    6.61338   -9.49035
       H    -9.78688    0.82081  -10.33553
       O   -10.51973    1.16952  -10.90404
      H1   -11.39618    0.83935  -10.62274
       H   -15.50380   -1.60946  -10.69821
       O   -16.41327   -1.46960  -10.41276
      H1   -16.86456   -2.28511  -10.66483
       H   -12.30444   -1.82454  -13.77583
       O   -12.43006   -1.02950  -13.20850
      H1   -11.45560   -0.79996  -13.11358
       H   -13.33018   -1.69899  -11.95883
       O   -13.94933   -2.10324  -11.31299
      H1   -13.37313   -2.48544  -10.65491
       H   -16.98192    1.37206  -15.82092
       O   -17.31100    1.09208  -14.97497
      H1   -16.80181    1.58583  -14.33572
       H   -12.82465    3.41015  -16.00056
       O   -13.68085    3.79507  -16.30812
      H1   -14.18638    2.97809  -16.52379
       H   -12.79104    8.02106  -11.95573
       O   -13.04583    7.15616  -12.29138
      H1   -12.41620    6.84777  -12.95138
       H    -8.48784    2.77775  -13.07718
       O    -7.54085    2.66530  -12.77384
      H1    -7.12061    2.19796  -13.55348
       H   -10.86047    3.10320   -9.06505
       O   -10.41636    3.75177   -9.65176
      H1   -10.66862    3.41752  -10.51673
       H   -12.10110    6.24068  -15.84277
       O   -12.15900    6.10927  -14.88762
      H1   -11.62617    5.28664  -14.82554
       H    -9.12764   -0.80549  -13.39832
       O    -9.66349   -0.01618  -13.40187
      H1    -9.74872    0.20516  -12.44628
       H   -11.85843    4.66329   -9.97116
       O   -12.82928    4.80118  -10.02890
      H1   -12.87142    5.70980  -10.31627
       H   -16.84205    2.55666  -17.32405
       O   -15.99895    2.26195  -16.95318
      H1   -15.71934    1.60181  -17.60169
       H   -11.04764    2.37885   -6.64878
       O   -11.36591    2.03349   -7.52217
      H1   -12.35656    1.97406   -7.41482
       H   -13.31160    0.50074  -13.98548
       O   -13.60732    1.33440  -14.42152
      H1   -14.27342    1.72534  -13.79969
       H   -10.95009    3.12562  -13.02252
       O   -10.26243    3.46728  -12.49885
      H1   -10.06051    2.70102  -11.88964
       H   -11.90502    2.18279  -14.80921
       O   -11.27063    2.81945  -15.07005
      H1   -10.75200    2.32985  -15.75084
       H   -14.91532   -1.63499  -15.93862
       O   -14.82036   -0.67890  -16.04747
      H1   -15.32429   -0.47675  -15.21773

