90
frame 2 | Written by MDAnalysis XYZWriter (release 2.4.3)
       H   -17.46430   -7.78029   -2.81979
       O   -16.99094   -7.20120   -3.44886
      H1   -16.66599   -7.77862   -4.18719
       H   -15.02017   -4.58763   -3.69901
       O   -15.06316   -3.90459   -2.98086
      H1   -14.97907   -4.39496   -2.16563
       H   -12.54151   -8.07574   -2.00570
       O   -12.39619   -8.92326   -1.55630
      H1   -11.50842   -9.13388   -1.92930
       H   -16.60813   -6.81278    0.28066
       O   -16.14993   -6.29783    0.98032
      H1   -15.75600   -7.00584    1.49757
       H   -13.84708   -4.24761    0.08578
       O   -12.94166   -4.42682   -0.23485
      H1   -12.56044   -5.04782    0.50270
       H   -12.72850   -7.02994    4.89125
       O   -12.91464   -6.17292    4.45759
      H1   -13.86379   -6.22435    4.24393
       H   -18.60470   -2.97022    4.31271
       O   -18.96680   -3.83304    4.05700
      H1   -19.58331   -3.47686    3.36490
       H   -19.48982  -11.52300    2.73967
       O   -19.68900  -10.98870    1.91941
      H1   -19.61587  -10.13820    2.34324
       H   -12.71741  -10.75245   -0.85026
       O   -13.06037  -11.34788   -0.16221
      H1   -13.64763  -11.92216   -0.68837
       H   -17.61785   -9.07062    4.77528
       O   -17.26515   -8.16676    4.88807
      H1   -17.94214   -7.71456    4.40971
       H   -16.02596   -8.16374    3.62760
       O   -15.26523   -7.76419    3.12717
      H1   -15.12158   -8.57799    2.59817
       H   -15.67388   -4.45368    0.58545
       O   -15.35367   -3.67610    0.04810
      H1   -15.40984   -2.92796    0.59693
       H   -16.23292   -5.45769    3.62715
       O   -15.64106   -4.77093    3.96169
      H1   -15.75063   -4.74816    4.91362
       H   -14.60501   -1.07495    1.14349
       O   -15.36086   -1.41644    1.69555
      H1   -14.82319   -1.89995    2.33559
       H   -18.16487  -11.01596    0.89852
       O   -17.38091  -11.01521    0.33368
      H1   -17.59873  -11.73649   -0.30089
       H   -10.95646   -5.68279   -1.90091
       O   -10.03856   -5.68276   -1.99457
      H1    -9.69400   -6.24331   -1.25262
       H   -14.03049  -10.23438    0.89789
       O   -14.70178   -9.99046    1.58875
      H1   -15.48068  -10.28747    1.15522
       H   -18.54882   -5.32446    3.12294
       O   -18.42103   -6.24465    2.75705
      H1   -17.71574   -6.09562    2.06494
       H   -18.17204   -2.17829   -0.74826
       O   -17.31355   -1.86568   -1.16360
      H1   -16.64607   -2.48180   -0.89490
       H   -11.12817   -9.95819    0.84982
       O   -11.41636   -9.06924    1.06360
      H1   -12.09317   -8.96160    0.37118
       H   -12.07656   -2.36399    2.85910
       O   -11.41388   -1.76099    2.60264
      H1   -11.92855   -1.24131    1.93158
       H   -19.15004   -8.19947    0.05405
       O   -18.17775   -8.17250    0.08009
      H1   -17.87365   -9.09147    0.15028
       H   -11.79108   -7.28295    1.40806
       O   -11.91227   -6.35726    1.62756
      H1   -12.50434   -6.43346    2.39900
       H   -13.31217   -6.18153   -3.00647
       O   -12.76764   -6.41664   -2.26358
      H1   -12.94027   -5.69378   -1.56940
       H   -12.22237  -11.32711    2.88292
       O   -13.00934  -11.60641    3.35811
      H1   -13.58911  -11.29497    2.67618
       H   -14.13949   -2.74112    4.04051
       O   -13.90633   -3.02220    3.19289
      H1   -14.47720   -3.82923    2.97957
       H   -10.57952   -5.16792    2.75917
       O    -9.79798   -4.88212    3.22536
      H1    -9.51868   -5.62667    3.79787
       H   -17.43716   -5.56844   -3.48929
       O   -17.65017   -4.60283   -3.40761
      H1   -16.77704   -4.19317   -3.21822
       H   -12.53226   -2.04661   -2.41005
       O   -12.82732   -2.35436   -3.31719
      H1   -13.65387   -2.80353   -3.15522
       H   -16.46727   -5.98894    7.07132
       O   -16.23102   -5.14356    6.69020
      H1   -17.12975   -4.69444    6.69065

