90
frame 2 | Written by MDAnalysis XYZWriter (release 2.4.3)
       H    15.23422   17.31245  -14.20507
       O    14.98961   17.01277  -13.29625
      H1    14.05138   16.60274  -13.46848
       H    17.21547   16.56473   -6.97606
       O    16.55546   17.25146   -7.12421
      H1    16.82871   17.68305   -7.98122
       H    19.01737   15.95030  -17.10160
       O    19.72622   16.27243  -16.54621
      H1    19.48155   17.21168  -16.41350
       H    15.56793   11.48860  -12.80137
       O    16.18267   12.00854  -13.38169
      H1    16.21243   11.43070  -14.21287
       H    17.72384   14.60816  -18.32686
       O    17.45299   15.45669  -17.94247
      H1    17.07010   15.20739  -17.10439
       H    12.60116   15.91401  -16.41617
       O    13.43688   16.14631  -15.93615
      H1    14.02724   15.46620  -16.26183
       H    11.98634   15.09794  -12.36766
       O    11.31178   14.43442  -12.04234
      H1    10.40128   14.81338  -12.16026
       H    10.83348   19.08101  -11.14293
       O    11.68813   19.29371  -10.67230
      H1    12.08427   18.39472  -10.47728
       H    16.99778   12.95113  -15.45846
       O    16.65050   13.85118  -15.69500
      H1    15.93100   13.54657  -16.32699
       H    11.51200   14.80370  -10.34332
       O    11.55188   15.16485   -9.44145
      H1    12.15236   15.95850   -9.56856
       H    13.78072   12.98457  -17.05274
       O    14.42668   13.74521  -17.12718
      H1    14.68215   13.69288  -18.07876
       H    12.52233   16.31360  -14.55833
       O    12.20689   16.45949  -13.68390
      H1    11.73622   17.30534  -13.75221
       H    13.57948   17.27411  -11.33543
       O    13.12993   17.03106  -10.45157
      H1    13.90995   16.66473   -9.89819
       H    17.34205   12.23459   -6.72456
       O    17.97065   12.49667   -7.44273
      H1    18.22803   13.37648   -7.15270
       H    15.42854   13.67692  -13.31498
       O    14.70862   14.28940  -13.19087
      H1    15.07083   15.13275  -13.29263
       H    18.44155   16.21282  -14.32969
       O    18.62528   16.48281  -13.44867
      H1    17.90386   16.01233  -13.02262
       H    18.02872   15.07233   -9.67344
       O    17.18021   14.89222  -10.13373
      H1    17.11831   13.89146  -10.15911
       H    17.93842   18.05828  -12.51316
       O    17.87516   18.73347  -11.77189
      H1    17.60667   19.50266  -12.32707
       H    18.07235   12.31333  -12.50920
       O    18.88026   11.90598  -12.13315
      H1    18.75483   10.97242  -12.16596
       H    13.40465   13.50776   -9.85154
       O    13.37640   12.57817  -10.09636
      H1    12.52539   12.52747  -10.52280
       H    11.62067   19.12343  -15.29761
       O    11.37098   19.19555  -14.33111
      H1    11.95264   19.95317  -14.07801
       H    16.29605   18.37592  -16.58834
       O    16.77241   18.08069  -15.76836
      H1    17.61769   18.47138  -15.91510
       H    18.20994   15.23056   -5.21961
       O    17.69561   14.94978   -6.00666
      H1    16.86174   14.78870   -5.54862
       H    13.39694   14.36088   -6.42930
       O    14.33614   14.57549   -6.31854
      H1    14.53915   14.93309   -7.18152
       H    19.04039   19.32729   -8.38098
       O    18.60799   18.58194   -8.86906
      H1    18.77144   18.81212   -9.83344
       H    14.12446   17.61218  -18.30612
       O    14.43723   18.03718  -17.52360
      H1    14.33757   17.40514  -16.78972
       H    18.03297   12.14246  -10.52918
       O    17.10503   12.14609  -10.17245
      H1    17.23949   12.23260   -9.27263
       H    19.36251   17.89349   -4.07801
       O    19.76162   18.68978   -4.50527
      H1    19.01335   19.08764   -4.96634
       H    11.30890   18.65423  -17.54971
       O    12.02880   18.94705  -16.99619
      H1    12.84690   18.47118  -17.35091
       H    15.65331   15.23405   -9.14366
       O    14.94188   15.76172   -8.74946
      H1    15.52184   16.36166   -8.24476

