90
frame 2 | Written by MDAnalysis XYZWriter (release 2.4.3)
       H    11.52225   -7.32141    2.82655
       O    12.26555   -7.73201    3.21410
      H1    12.77089   -7.86534    2.37205
       H    11.56978  -13.34763    1.81681
       O    12.52272  -13.04954    1.93224
      H1    12.34016  -12.33785    2.60093
       H     8.94158   -9.79712    3.43594
       O     8.34706   -9.98264    2.65310
      H1     7.70336   -9.28456    2.76077
       H    11.92065  -11.64173    0.81077
       O    12.23255  -10.82513    0.36880
      H1    11.47850  -10.59565   -0.13458
       H    12.48377   -5.91104   -1.88551
       O    12.44454   -4.92017   -2.06713
      H1    13.37763   -4.71191   -2.24864
       H    13.67578   -8.61447   -4.51623
       O    13.92242   -9.04935   -3.68619
      H1    13.29252   -9.76881   -3.51172
       H    13.01211   -7.96851   -0.87296
       O    12.70033   -7.54771   -1.72005
      H1    13.23220   -8.00906   -2.43693
       H    12.53364   -3.69480   -0.31462
       O    12.49357   -3.56192    0.63389
      H1    11.65540   -3.03662    0.60476
       H    14.34989   -3.69161    2.99911
       O    14.28181   -2.81296    2.61651
      H1    13.67797   -2.86250    1.87004
       H    13.94242   -6.14093    5.03894
       O    12.97099   -6.12573    5.20723
      H1    12.67255   -6.68083    4.45039
       H    16.18856   -9.26091    1.80133
       O    16.23136   -8.38859    1.29485
      H1    16.74312   -8.56526    0.45611
       H    10.50679   -6.91460   -1.23367
       O     9.60053   -6.65262   -1.03342
      H1     9.09663   -7.46898   -1.14341
       H    14.48119   -8.39806    0.92562
       O    13.52938   -8.27059    0.82065
      H1    13.17264   -9.21661    0.93629
       H    13.62390  -11.96790   -2.67796
       O    12.69790  -11.57780   -2.68497
      H1    12.68140  -11.37378   -1.76347
       H     9.17370   -8.20463    5.27741
       O     9.73263   -8.98856    5.18174
      H1    10.61361   -8.66162    5.41488
       H    11.92188  -11.04058    4.15527
       O    12.08641  -10.50767    3.34654
      H1    11.75942   -9.65023    3.66967
       H    16.66166   -6.91141    5.12619
       O    17.15444   -6.65550    5.88881
      H1    17.52723   -5.78635    5.65740
       H    11.01176   -5.94816   -4.68747
       O    11.84414   -6.41642   -4.63635
      H1    12.22671   -6.09953   -3.83880
       H    15.78176  -12.02417   -1.24982
       O    16.00149  -11.33533   -0.58432
      H1    16.20382  -11.81689    0.18042
       H    15.87539   -5.53987   -2.47054
       O    15.26256   -4.79000   -2.54339
      H1    15.76919   -4.10501   -2.15729
       H    18.15371   -9.46580   -1.17242
       O    18.02493   -8.57726   -0.72929
      H1    17.89659   -8.07845   -1.58183
       H    16.96124   -7.41348    2.58893
       O    17.39591   -6.70950    3.11864
      H1    18.02587   -6.25923    2.47832
       H    16.36794   -9.91062   -4.57066
       O    16.24969  -10.36488   -3.69503
      H1    15.35991  -10.05309   -3.40461
       H     9.13017  -10.00340   -1.35818
       O     9.91707  -10.41055   -1.71191
      H1     9.71870  -11.33688   -1.60875
       H    11.45384   -4.96914    1.00991
       O    10.93669   -5.69559    1.38874
      H1    10.57255   -6.06324    0.54687
       H    13.83712  -10.53222    2.96468
       O    14.84150  -10.51102    2.89380
      H1    15.13581  -11.33236    2.46125
       H    15.64342   -9.87890    4.53529
       O    15.90670   -9.44823    5.34992
      H1    16.62509  -10.07411    5.54788
       H    15.78111   -5.60621    2.91742
       O    14.84579   -5.39066    3.13154
      H1    14.32759   -5.72908    2.33118
       H    16.80332  -13.06395    2.30644
       O    16.95510  -12.34761    1.65620
      H1    17.74588  -11.82360    2.00714
       H    10.32864   -5.17033    2.95345
       O    10.16601   -5.34874    3.93351
      H1    10.99345   -4.99597    4.35289

