90
frame 2 | Written by MDAnalysis XYZWriter (release 2.4.3)
       H    13.50904  -18.56851    2.26258
       O    14.08917  -18.12147    1.61707
      H1    14.05155  -17.24436    2.01710
       H    11.48255  -12.31384   -3.82256
       O    10.67109  -12.72383   -4.14293
      H1    10.57442  -12.12647   -4.95272
       H    16.38412  -16.14068   -1.78646
       O    16.92139  -15.60160   -2.37726
      H1    17.77931  -15.89448   -1.96976
       H    11.36607  -14.54991   -3.00508
       O    11.05447  -15.26174   -2.42358
      H1    11.42032  -15.98351   -2.93432
       H    11.56978  -13.34763    1.81681
       O    12.52272  -13.04954    1.93224
      H1    12.34016  -12.33785    2.60093
       H    11.33098  -18.19292   -3.79315
       O    11.97374  -17.84655   -3.18268
      H1    12.70921  -18.46138   -3.25407
       H    11.92065  -11.64173    0.81077
       O    12.23255  -10.82513    0.36880
      H1    11.47850  -10.59565   -0.13458
       H    13.67578   -8.61447   -4.51623
       O    13.92242   -9.04935   -3.68619
      H1    13.29252   -9.76881   -3.51172
       H     9.99667  -16.71094    0.07861
       O     9.43258  -16.48631    0.84177
      H1     9.60278  -15.52207    0.97079
       H    16.36269  -15.58171    0.32245
       O    16.57845  -15.17568    1.18938
      H1    16.30273  -15.87150    1.81349
       H    16.07665  -13.65929   -2.62516
       O    15.59555  -12.82603   -2.75790
      H1    16.25886  -12.33483   -3.26824
       H    13.47248  -14.66649    2.66880
       O    13.59225  -15.59619    2.87583
      H1    12.71194  -15.87803    2.63502
       H    14.48119   -8.39806    0.92562
       O    13.52938   -8.27059    0.82065
      H1    13.17264   -9.21661    0.93629
       H    13.62390  -11.96790   -2.67796
       O    12.69790  -11.57780   -2.68497
      H1    12.68140  -11.37378   -1.76347
       H    11.92188  -11.04058    4.15527
       O    12.08641  -10.50767    3.34654
      H1    11.75942   -9.65023    3.66967
       H    14.24159  -16.30946    4.95807
       O    15.10230  -16.67632    5.26477
      H1    15.42819  -17.02043    4.37412
       H    14.72619  -17.48963   -0.48358
       O    14.81567  -16.82977   -1.18653
      H1    14.31835  -16.08215   -0.75358
       H    15.78176  -12.02417   -1.24982
       O    16.00149  -11.33533   -0.58432
      H1    16.20382  -11.81689    0.18042
       H     9.38993  -13.91803   -1.91064
       O     8.89765  -13.35626   -1.35215
      H1     7.97370  -13.46888   -1.67705
       H    10.64765  -15.37685    3.93057
       O    10.51413  -14.53484    4.47845
      H1     9.82425  -14.05071    3.96568
       H    14.41298  -15.49197   -4.96482
       O    14.22805  -14.64167   -5.45068
      H1    14.23655  -14.05045   -4.66958
       H    10.72043  -16.94202    2.23192
       O    11.18338  -16.54798    2.96006
      H1    11.59571  -17.33614    3.34886
       H     9.13017  -10.00340   -1.35818
       O     9.91707  -10.41055   -1.71191
      H1     9.71870  -11.33688   -1.60875
       H     9.34485  -13.23190    2.01992
       O     9.90716  -13.68495    1.32428
      H1     9.39701  -13.49376    0.50022
       H    13.27513  -13.98031    0.09857
       O    13.32198  -14.88105   -0.23814
      H1    12.60369  -14.77050   -0.91208
       H    13.83712  -10.53222    2.96468
       O    14.84150  -10.51102    2.89380
      H1    15.13581  -11.33236    2.46125
       H    16.41678  -16.39660   -3.86708
       O    15.87505  -16.84190   -4.49435
      H1    15.42572  -17.49883   -3.99351
       H    16.80332  -13.06395    2.30644
       O    16.95510  -12.34761    1.65620
      H1    17.74588  -11.82360    2.00714
       H    17.09783  -14.24664    4.58978
       O    16.29726  -13.79007    4.42053
      H1    15.58158  -14.36369    4.69006
       H    10.07862  -18.66299   -1.24621
       O    10.90472  -18.43923   -0.76461
      H1    11.41940  -18.03750   -1.49840

