90
frame 2 | Written by MDAnalysis XYZWriter (release 2.4.3)
       H    11.52225   -7.32141    2.82655
       O    12.26555   -7.73201    3.21410
      H1    12.77089   -7.86534    2.37205
       H    18.07210  -13.67527    6.71483
       O    17.35091  -13.58218    7.33725
      H1    16.62328  -14.05324    6.90756
       H    11.56978  -13.34763    1.81681
       O    12.52272  -13.04954    1.93224
      H1    12.34016  -12.33785    2.60093
       H    19.05927  -12.25637    0.16489
       O    19.27169  -12.86046   -0.57169
      H1    18.80681  -12.32354   -1.25188
       H     8.94158   -9.79712    3.43594
       O     8.34706   -9.98264    2.65310
      H1     7.70336   -9.28456    2.76077
       H    11.92065  -11.64173    0.81077
       O    12.23255  -10.82513    0.36880
      H1    11.47850  -10.59565   -0.13458
       H    13.01211   -7.96851   -0.87296
       O    12.70033   -7.54771   -1.72005
      H1    13.23220   -8.00906   -2.43693
       H    13.94242   -6.14093    5.03894
       O    12.97099   -6.12573    5.20723
      H1    12.67255   -6.68083    4.45039
       H    16.18856   -9.26091    1.80133
       O    16.23136   -8.38859    1.29485
      H1    16.74312   -8.56526    0.45611
       H    16.36269  -15.58171    0.32245
       O    16.57845  -15.17568    1.18938
      H1    16.30273  -15.87150    1.81349
       H    13.47248  -14.66649    2.66880
       O    13.59225  -15.59619    2.87583
      H1    12.71194  -15.87803    2.63502
       H    14.48119   -8.39806    0.92562
       O    13.52938   -8.27059    0.82065
      H1    13.17264   -9.21661    0.93629
       H    13.62390  -11.96790   -2.67796
       O    12.69790  -11.57780   -2.68497
      H1    12.68140  -11.37378   -1.76347
       H     9.17370   -8.20463    5.27741
       O     9.73263   -8.98856    5.18174
      H1    10.61361   -8.66162    5.41488
       H    11.92188  -11.04058    4.15527
       O    12.08641  -10.50767    3.34654
      H1    11.75942   -9.65023    3.66967
       H    16.66166   -6.91141    5.12619
       O    17.15444   -6.65550    5.88881
      H1    17.52723   -5.78635    5.65740
       H    18.64801   -9.36658    4.54838
       O    19.16597   -8.91607    3.92605
      H1    18.75836   -8.10369    3.61922
       H    12.14889   -8.76314    7.78758
       O    12.37617   -8.81947    6.86079
      H1    12.88031   -8.03457    6.62204
       H    15.78176  -12.02417   -1.24982
       O    16.00149  -11.33533   -0.58432
      H1    16.20382  -11.81689    0.18042
       H    18.15371   -9.46580   -1.17242
       O    18.02493   -8.57726   -0.72929
      H1    17.89659   -8.07845   -1.58183
       H    16.96124   -7.41348    2.58893
       O    17.39591   -6.70950    3.11864
      H1    18.02587   -6.25923    2.47832
       H    12.91315  -13.96198    7.20361
       O    13.07583  -14.45173    6.37552
      H1    12.24434  -14.16405    5.94503
       H    13.27513  -13.98031    0.09857
       O    13.32198  -14.88105   -0.23814
      H1    12.60369  -14.77050   -0.91208
       H    13.83712  -10.53222    2.96468
       O    14.84150  -10.51102    2.89380
      H1    15.13581  -11.33236    2.46125
       H    17.86651  -11.47398    6.41226
       O    17.78515  -11.36255    5.42906
      H1    17.35456  -12.19826    5.28457
       H    15.64342   -9.87890    4.53529
       O    15.90670   -9.44823    5.34992
      H1    16.62509  -10.07411    5.54788
       H    15.78111   -5.60621    2.91742
       O    14.84579   -5.39066    3.13154
      H1    14.32759   -5.72908    2.33118
       H    16.80332  -13.06395    2.30644
       O    16.95510  -12.34761    1.65620
      H1    17.74588  -11.82360    2.00714
       H    17.09783  -14.24664    4.58978
       O    16.29726  -13.79007    4.42053
      H1    15.58158  -14.36369    4.69006
       H    15.90831  -10.57333    7.53877
       O    15.26611  -10.61084    8.27658
      H1    14.96789   -9.72179    8.25936

