90
frame 2 | Written by MDAnalysis XYZWriter (release 2.4.3)
       H     3.41789  -10.85136   16.92293
       O     3.65820   -9.96820   17.18678
      H1     3.38912   -9.98880   18.09333
       H    -1.00867  -12.68310   17.80155
       O    -0.10127  -12.31374   17.89349
      H1    -0.26220  -11.63793   17.19550
       H     9.62433  -15.08234   15.83259
       O     9.11709  -15.17519   16.64150
      H1     9.47682  -14.42134   17.10445
       H     2.80430  -16.83846   15.66713
       O     2.40863  -17.71968   15.65005
      H1     2.44725  -17.91799   14.73742
       H     7.20593   -8.85280   18.61627
       O     6.30596   -8.96048   18.92483
      H1     5.87015   -9.62797   18.39519
       H     2.64477  -17.18898   12.60374
       O     2.64315  -18.03557   13.04684
      H1     1.79081  -18.35476   12.74759
       H     5.59046  -11.62628   12.47275
       O     6.23060  -11.59990   11.68059
      H1     5.97757  -12.48216   11.27624
       H     5.25712  -18.74357   13.52496
       O     5.55111  -18.91442   14.44278
      H1     5.71534  -18.09923   14.90765
       H     8.80859  -11.32859   15.15932
       O     8.85080  -12.27393   14.99987
      H1     8.20522  -12.56231   15.66239
       H     0.78872  -16.78901   16.38618
       O     0.20960  -16.09733   16.73844
      H1    -0.63724  -16.48241   16.49833
       H     2.96336  -13.15576   18.04429
       O     2.55080  -13.01964   17.18300
      H1     1.59161  -12.94562   17.40565
       H    -2.06686  -14.59062   19.09905
       O    -2.31416  -13.94218   18.38604
      H1    -2.40033  -14.54664   17.63617
       H     5.15047  -18.06571   17.61913
       O     5.64395  -17.56697   17.02147
      H1     5.09889  -16.78052   16.89891
       H     2.23532  -11.95571   13.43554
       O     2.56783  -12.10429   14.32581
      H1     2.19754  -12.94804   14.55298
       H     2.65432   -9.40795   15.85635
       O     2.08003   -8.92887   15.27242
      H1     2.71182   -8.58715   14.62821
       H     1.64774  -16.63346   19.68058
       O     1.39206  -15.78676   19.35817
      H1     1.01127  -15.97285   18.50527
       H     1.05903  -15.11406   15.57089
       O     1.57348  -14.71112   14.82423
      H1     0.81840  -14.70667   14.18923
       H     4.56038  -13.85994   11.27237
       O     3.87919  -13.23559   10.87342
      H1     3.89064  -13.39784    9.93935
       H     7.09185  -15.44236   11.24938
       O     6.24267  -15.01546   11.48858
      H1     6.15432  -15.24370   12.43619
       H     5.20859  -13.48316   19.53624
       O     5.10711  -12.62541   19.05462
      H1     5.45764  -12.14765   19.84016
       H    -2.61750  -12.24701   15.04526
       O    -1.90625  -12.05282   14.36152
      H1    -1.57316  -12.94983   14.12022
       H     6.51313  -12.28715   18.12511
       O     7.24090  -12.14396   17.50001
      H1     8.03997  -12.46259   18.04349
       H    -0.73757  -10.85501   15.30131
       O    -0.25981  -10.28902   15.91672
      H1     0.57346  -10.11872   15.53951
       H     4.50336  -14.81084   16.02257
       O     3.88881  -15.41152   16.57125
      H1     3.12825  -14.83358   16.83269
       H     2.45565  -14.71340   13.29686
       O     2.91770  -15.13596   12.53978
      H1     3.04405  -14.37034   11.96484
       H     4.23770  -11.72926   14.47541
       O     5.20841  -11.50772   14.31917
      H1     5.30457  -10.62856   14.75728
       H     6.22403  -13.61673   16.05053
       O     5.93957  -13.97744   15.21111
      H1     5.85014  -13.08012   14.77385
       H     8.56603  -16.29555   17.85508
       O     8.27557  -17.03997   18.47148
      H1     7.35414  -16.97250   18.26248
       H    -1.61703  -14.81875   13.30493
       O    -0.71620  -14.47352   13.30271
      H1    -0.33615  -14.84464   12.48340
       H     6.77518  -15.42286   14.34739
       O     6.83182  -16.15836   13.75926
      H1     7.63190  -16.60159   14.19660

