90
frame 2 | Written by MDAnalysis XYZWriter (release 2.4.3)
       H   -12.81161    7.46038   14.58465
       O   -12.00910    7.19067   15.02367
      H1   -11.60406    8.01588   15.43665
       H   -18.37045    5.91115    9.49284
       O   -18.94217    6.56388    9.90493
      H1   -18.79199    7.35354    9.32735
       H   -18.78430    3.45480   11.18524
       O   -18.41984    3.36771   10.28057
      H1   -17.48631    3.38339   10.55750
       H   -15.25616    8.41415   10.71279
       O   -15.94225    7.89062   11.14863
      H1   -16.18966    7.29268   10.45318
       H   -17.09720   -1.06055   11.72433
       O   -16.87401   -1.05780   12.67677
      H1   -17.33265   -0.27818   13.01248
       H   -18.21405    3.55649   16.31306
       O   -17.65759    2.92145   16.81522
      H1   -16.74273    3.23959   16.71285
       H   -13.89401    9.41300   12.89411
       O   -13.69728   10.32131   13.07897
      H1   -12.75113   10.32184   13.30707
       H   -10.95639    4.39792   14.26692
       O   -11.00169    5.04322   13.56000
      H1   -11.29845    5.84772   13.96543
       H   -13.23555   -0.29618   10.31055
       O   -12.82607   -0.58708    9.50727
      H1   -13.45912   -1.24934    9.16314
       H   -14.94967    8.19832   14.12327
       O   -14.52243    7.48611   13.61641
      H1   -15.07140    7.62965   12.74706
       H   -14.37699    2.97045   16.25085
       O   -14.99504    3.70891   16.08679
      H1   -14.69862    4.47525   16.60275
       H   -15.32672   10.23180   14.74468
       O   -16.04135    9.57476   14.85591
      H1   -16.87907   10.02180   14.61127
       H   -17.56046    1.62559   15.36380
       O   -17.28646    1.20435   14.54062
      H1   -16.33313    1.05139   14.59248
       H   -18.46009   10.04477   10.42460
       O   -18.47887    9.33534   11.10814
      H1   -17.62162    8.97056   10.85289
       H   -17.76843    4.92745   14.76831
       O   -18.44918    5.14770   15.43433
      H1   -18.00648    5.69006   16.10529
       H   -14.24147   -0.75893   13.98888
       O   -14.47519   -1.10360   14.85640
      H1   -13.62796   -1.00431   15.29107
       H   -11.49006    6.53728    9.55138
       O   -12.39871    6.31816    9.42570
      H1   -12.39736    6.03730    8.41704
       H   -18.59129    9.42190   12.77121
       O   -18.55241    9.44359   13.81062
      H1   -19.25961    8.80018   14.00619
       H   -14.91564    4.49091   10.70398
       O   -15.69996    4.18626   11.13419
      H1   -15.63230    4.54580   12.05761
       H   -14.63895    1.99891    7.46149
       O   -15.55803    1.70304    7.58538
      H1   -16.08988    2.49604    7.32301
       H   -15.16478    5.69137   13.74456
       O   -15.80451    4.92796   13.80224
      H1   -15.48857    4.46512   14.58329
       H   -16.81833    6.34529    7.53678
       O   -16.98242    5.65224    8.19851
      H1   -16.10385    5.25928    8.33494
       H   -16.51128    0.27371    9.41056
       O   -16.85258   -0.56230    9.62495
      H1   -16.28238   -1.23625    9.21880
       H   -13.50392    4.52042    7.49378
       O   -14.23846    4.31192    8.09922
      H1   -13.77224    3.77877    8.76376
       H   -13.53919    1.20576   11.68869
       O   -13.75222    1.97597   11.13824
      H1   -14.43089    2.41440   11.58652
       H   -12.37225    2.71100   12.06977
       O   -11.44303    2.89065   12.25134
      H1   -11.45171    3.87600   12.41080
       H   -17.47912    4.22913    7.61292
       O   -17.68079    3.42904    7.09894
      H1   -18.58480    3.38063    7.39662
       H   -12.76507   -0.81914   12.44487
       O   -13.66317   -0.55123   12.24066
      H1   -14.18910   -1.33505   12.14329
       H   -12.90507    1.80870   17.45420
       O   -12.99285    1.82425   16.46479
      H1   -12.31255    2.50456   16.25579
       H   -14.03498    8.93200    8.99644
       O   -14.54308    8.13495    8.93601
      H1   -13.87907    7.48008    9.25448

