90
frame 2 | Written by MDAnalysis XYZWriter (release 2.4.3)
       H    12.40446    4.35539  -17.01553
       O    11.73525    5.03799  -16.72850
      H1    11.13104    4.38253  -16.46458
       H     9.85064   -2.14586  -13.72260
       O     8.92034   -2.17839  -13.36528
      H1     8.68074   -1.31842  -13.81450
       H    11.74635   -2.06513  -14.43337
       O    11.34091   -2.88068  -14.17305
      H1    10.95823   -3.25212  -14.99238
       H     8.87603   -2.62499  -11.59494
       O     9.04038   -2.61200  -10.60749
      H1     8.29492   -3.24331  -10.31237
       H     6.76051    2.88850  -14.04141
       O     6.37372    2.05602  -14.36672
      H1     5.69301    1.96330  -13.70260
       H     7.74349    0.84197  -14.38518
       O     8.43328    0.25159  -14.65335
      H1     9.07196    0.95159  -14.95314
       H    13.89913   -3.31851  -10.91530
       O    14.09838   -3.01200  -11.84188
      H1    13.19885   -2.97854  -12.22028
       H    13.69341    4.05080  -18.25922
       O    13.64286    3.45174  -17.51993
      H1    13.15584    2.69702  -17.92532
       H    12.44903   -2.36043  -18.08262
       O    12.33106   -2.08504  -17.17500
      H1    11.38106   -1.69661  -17.19888
       H    10.93419    1.15281  -10.90114
       O    11.28916    1.95217  -11.29172
      H1    11.07890    2.60312  -10.56539
       H    14.61028    4.83493  -13.80268
       O    14.39732    5.78698  -14.02883
      H1    13.39594    5.72332  -13.93021
       H     9.57618   -1.01086  -10.46489
       O     9.81653   -0.06978  -10.25520
      H1     8.97673    0.38390  -10.43252
       H     8.77812    3.50249  -16.93501
       O     9.13016    4.30046  -16.52217
      H1     9.22624    4.89981  -17.30889
       H    11.79368    5.65007  -15.03834
       O    11.62438    5.96814  -14.14006
      H1    10.90238    5.38359  -13.90280
       H     7.70761    4.42057  -15.13162
       O     7.40138    4.48071  -14.21949
      H1     8.08916    4.97797  -13.76797
       H    12.64230   -3.91448  -16.40070
       O    12.63607   -4.84023  -16.13469
      H1    12.99677   -5.30320  -16.92397
       H    12.97589    1.65820  -12.00733
       O    13.64808    1.24641  -12.60462
      H1    14.16569    0.66284  -11.92680
       H     9.71127   -4.85865  -15.77225
       O     9.18086   -4.25437  -16.31935
      H1     8.36655   -4.15725  -15.73013
       H    15.35686    2.71300  -16.99195
       O    16.06899    2.14343  -16.53059
      H1    15.62169    1.29972  -16.35836
       H    12.97000    0.69488  -18.72936
       O    12.39580    0.86662  -17.95314
      H1    12.74922    0.13332  -17.43067
       H     9.86355    4.57857  -12.28816
       O    10.32335    3.86537  -12.82012
      H1    10.03177    3.04642  -12.37471
       H    10.74538    1.14597  -15.02290
       O    10.36557    2.03391  -15.29612
      H1    10.74021    2.49633  -14.53819
       H     6.74942    2.52363  -16.76071
       O     7.41013    1.91753  -17.15993
      H1     7.68201    1.33650  -16.43458
       H    12.60536    0.08949  -13.81662
       O    12.03043   -0.29717  -14.50522
      H1    12.72619   -0.31247  -15.25147
       H    15.40274   -0.19718  -15.19398
       O    14.79920   -0.17769  -15.96254
      H1    14.99886   -0.99542  -16.44426
       H     7.37695    1.78454  -10.37631
       O     7.53023    1.02381  -10.98579
      H1     6.81226    0.42323  -10.78393
       H     6.45440   -3.45280  -14.64477
       O     7.10606   -4.17140  -14.46861
      H1     7.78787   -3.71389  -13.97322
       H     9.42407    4.91893  -19.53339
       O     8.65029    4.32051  -19.57657
      H1     9.05428    3.42505  -19.79399
       H    15.36965    2.81718  -14.54240
       O    15.39972    3.11437  -13.61215
      H1    14.86025    2.43797  -13.25811
       H     8.97687   -1.20393  -16.53761
       O     9.75588   -1.55728  -16.99288
      H1     9.59211   -2.51695  -16.77822

