90
frame 3 | Written by MDAnalysis XYZWriter (release 2.4.3)
       H    -8.19370    7.73539  -18.18674
       O    -8.79289    8.53058  -18.03834
      H1    -9.29196    8.31131  -17.20791
       H    -7.03205    4.80812  -18.85191
       O    -6.17076    4.96009  -18.42105
      H1    -5.43516    4.57582  -18.91942
       H    -9.12144   -0.09855  -16.67936
       O    -9.73659   -0.76461  -16.90239
      H1   -10.52911   -0.30375  -17.24972
       H    -0.81590    4.85220  -13.70453
       O    -1.30341    4.03255  -13.86032
      H1    -1.62014    3.73924  -13.00687
       H    -3.31400    7.07778  -10.34598
       O    -3.43077    6.36226  -10.97856
      H1    -3.33724    6.75607  -11.86244
       H    -5.99698    6.75318  -18.26073
       O    -5.89578    7.70001  -18.44027
      H1    -5.40328    7.95910  -17.66432
       H    -6.35678    5.62841  -15.70473
       O    -5.95246    6.47490  -15.41055
      H1    -5.05128    6.27071  -15.40996
       H   -11.12740    7.05582  -12.03375
       O   -10.67300    6.23924  -11.81986
      H1    -9.72240    6.49815  -11.74176
       H    -7.64114    0.96605  -12.42271
       O    -7.98430    0.14382  -12.90105
      H1    -8.88767    0.04018  -12.55174
       H    -4.79133    1.62087  -19.55593
       O    -4.04167    1.34390  -19.02452
      H1    -4.02528    1.80829  -18.16324
       H    -7.40568    8.13040  -15.06053
       O    -7.78176    8.28325  -14.23592
      H1    -7.56445    7.52081  -13.65376
       H   -11.98176    3.10384  -11.34527
       O   -11.11063    3.39969  -11.58591
      H1   -11.19774    4.37882  -11.65908
       H    -4.23260    8.95286  -13.92693
       O    -4.50722    9.62619  -14.58556
      H1    -5.45829    9.45835  -14.61250
       H   -10.21297    3.28991  -10.11379
       O    -9.77333    3.06221   -9.24099
      H1   -10.29675    2.32619   -8.89462
       H   -10.45929    4.01201  -16.12013
       O    -9.63776    3.74642  -15.70365
      H1    -9.89827    3.20027  -14.96372
       H    -6.07872    0.55164  -16.93521
       O    -6.78932    1.18249  -17.16756
      H1    -6.50918    2.04731  -16.80813
       H    -2.63105    3.09304  -10.91442
       O    -2.05846    3.82374  -11.04669
      H1    -2.77448    4.57248  -10.98663
       H    -8.38476    5.73176  -20.04024
       O    -8.70602    5.44513  -19.19913
      H1    -9.58412    5.12592  -19.27393
       H    -9.23984    1.25526  -13.36423
       O    -9.96502    1.82240  -13.70336
      H1   -10.26144    2.41183  -12.97180
       H    -2.70119    5.76096  -15.88735
       O    -3.27778    5.43506  -15.15811
      H1    -2.62836    5.13200  -14.53926
       H    -4.01464    0.79932  -10.01143
       O    -4.21584    1.73535  -10.32341
      H1    -5.17671    1.75106  -10.19050
       H    -6.61393    4.16274  -17.11649
       O    -6.87471    3.80374  -16.18407
      H1    -7.82925    3.82523  -16.19473
       H    -9.26849    7.75443  -14.97509
       O    -9.82123    7.40621  -15.69975
      H1   -10.61593    7.11879  -15.34099
       H    -2.93565    1.98404  -16.37138
       O    -3.70262    2.49328  -16.60449
      H1    -3.65540    3.40460  -16.24708
       H    -5.04795    5.65463  -10.45099
       O    -5.95040    5.37398  -10.24589
      H1    -5.84882    4.43399  -10.11234
       H    -7.26601    5.99973  -11.31193
       O    -7.79760    6.62203  -11.78600
      H1    -7.75217    7.49821  -11.22938
       H    -2.65535    8.34641  -13.19471
       O    -3.26138    7.61158  -13.26551
      H1    -2.97721    7.19940  -14.13122
       H    -7.90474    2.71246  -10.86995
       O    -7.18769    2.35489  -11.37492
      H1    -7.18345    2.85996  -12.21245
       H    -6.50474    4.06991  -14.43937
       O    -6.57556    4.12542  -13.47223
      H1    -6.86903    5.04761  -13.36886
       H    -3.21318    8.81547  -17.49938
       O    -3.67913    8.20221  -16.86129
      H1    -4.09670    8.76783  -16.20777

