90
frame 1 | Written by MDAnalysis XYZWriter (release 2.4.3)
       H    -0.57257  -20.07861  -13.38784
       O    -0.66968  -19.14868  -13.46990
      H1     0.30005  -18.90077  -13.41107
       H    -1.75421  -15.27347  -10.45041
       O    -1.99616  -14.93130  -11.31067
      H1    -2.72125  -14.32986  -11.13989
       H     2.10024  -15.52243  -10.05816
       O     1.20665  -15.21045   -9.94111
      H1     1.17771  -15.21753   -8.96532
       H     5.97327  -18.30931  -15.43377
       O     5.09751  -18.07615  -15.07073
      H1     5.16879  -17.20490  -14.65536
       H    -2.35125  -16.09671  -14.38800
       O    -1.40912  -16.02371  -14.76652
      H1    -0.75876  -16.27212  -14.06718
       H     4.10615  -15.23507  -13.92647
       O     4.93326  -15.65598  -13.63607
      H1     5.51559  -14.88868  -13.47223
       H     2.15569  -13.28227  -11.99512
       O     3.04796  -13.15612  -12.36326
      H1     2.90739  -13.47543  -13.24730
       H     1.06579  -17.59378  -19.63050
       O     0.31747  -17.82320  -19.10918
      H1     0.73647  -18.02036  -18.32419
       H     2.10486  -12.08551  -17.22501
       O     2.99704  -11.78527  -17.29552
      H1     3.22547  -12.20928  -18.12803
       H     0.21931  -14.75040  -17.28969
       O     0.59220  -14.75917  -16.42067
      H1    -0.14620  -14.96662  -15.82969
       H     8.14985  -17.12164  -13.28663
       O     7.57933  -17.07336  -14.02343
      H1     6.79745  -16.71951  -13.60547
       H     3.62855  -14.20166  -11.12125
       O     4.07396  -15.02492  -10.83642
      H1     4.25747  -15.43377  -11.67474
       H     1.33608  -16.15620  -13.79425
       O     0.70915  -16.05126  -13.03936
      H1     0.91581  -15.11247  -12.76373
       H    -4.27622  -15.51765  -13.67930
       O    -4.17460  -16.41563  -13.98090
      H1    -3.92210  -16.95187  -13.22643
       H    -2.10102  -14.18543  -13.71675
       O    -2.47183  -13.29789  -13.64020
      H1    -1.65855  -12.96056  -13.22224
       H    -0.45925  -17.31562   -9.86761
       O    -0.91763  -17.16393   -9.00687
      H1    -0.23953  -16.61323   -8.51546
       H     2.75496  -17.44450  -18.15126
       O     3.11559  -16.76889  -18.75151
      H1     3.38910  -16.07956  -18.10885
       H     2.55210  -18.01849  -15.17640
       O     2.01762  -17.20229  -15.23184
      H1     1.32010  -17.54720  -15.82470
       H    -4.23970  -14.70872  -17.02785
       O    -3.81381  -15.50806  -17.47591
      H1    -3.73378  -16.04793  -16.67241
       H     2.52655  -18.24440  -11.17596
       O     3.36561  -18.48103  -11.58978
      H1     4.02210  -18.24986  -10.91359
       H     1.05543  -13.51563  -19.47293
       O     0.97063  -12.59454  -19.06511
      H1     0.47138  -12.18866  -19.78965
       H     0.15747  -18.66231  -11.69271
       O     0.71412  -18.18125  -11.10033
      H1     0.74823  -17.27862  -11.45429
       H     6.49092  -13.70087  -15.79202
       O     5.69174  -13.15334  -15.83008
      H1     5.91326  -12.48447  -15.14352
       H     2.38738  -14.30394  -15.72995
       O     2.88874  -13.92409  -15.03150
      H1     3.58502  -13.52982  -15.51252
       H     5.12062  -17.31326  -18.10457
       O     5.96399  -16.95044  -18.51508
      H1     6.66288  -17.51650  -18.08829
       H    -0.18045  -12.72329  -12.17132
       O     0.06755  -13.62581  -12.36200
      H1    -0.53530  -14.08784  -11.73910
       H    -1.29497  -17.61666  -16.06549
       O    -1.16777  -18.46639  -16.45252
      H1    -0.92777  -18.96445  -15.62730
       H    -0.84896  -15.98899  -18.94661
       O    -1.11926  -15.11944  -18.54392
      H1    -1.93740  -15.44132  -18.11250
       H     4.99692  -13.83361  -17.39627
       O     4.85539  -14.50399  -18.13609
      H1     5.74183  -14.86776  -18.29327
       H    -3.34115  -19.24940  -12.50930
       O    -3.14627  -18.28724  -12.40171
      H1    -2.20825  -18.37245  -12.61246

