90
frame 1 | Written by MDAnalysis XYZWriter (release 2.4.3)
       H    11.75218  -12.23457   -3.64996
       O    10.86632  -12.66127   -3.90493
      H1    10.84215  -12.26558   -4.81873
       H    10.51087  -15.71392   -3.05819
       O    10.54674  -15.91752   -2.13340
      H1    11.29347  -16.51430   -2.05719
       H     7.37252   -8.37701   -1.86517
       O     8.03301   -8.27405   -1.16319
      H1     7.68743   -8.93645   -0.53264
       H    10.76615   -7.32317    1.92857
       O    11.14371   -8.07031    2.47205
      H1    11.84370   -8.25160    1.84257
       H     6.02162  -14.58263   -3.63917
       O     5.18132  -14.18040   -3.89108
      H1     5.52001  -13.38631   -4.26731
       H    11.13370  -12.72952    1.57784
       O    11.98743  -12.35983    1.89512
      H1    11.84939  -12.03802    2.78912
       H     9.01957   -9.42893    2.84305
       O     8.32174   -9.98694    2.47531
      H1     7.64658   -9.29435    2.30644
       H    11.78146  -11.39194    0.30453
       O    12.07212  -10.76247   -0.37987
      H1    11.32187  -10.33665   -0.73671
       H    12.73405   -9.05615   -4.68567
       O    13.54492   -9.26423   -4.17540
      H1    13.43911  -10.18620   -3.99204
       H    12.99360   -8.21684   -1.26842
       O    12.58609   -7.84715   -2.04979
      H1    12.85484   -8.45508   -2.78889
       H     9.14104  -14.93212   -4.72808
       O    10.06089  -15.00176   -5.09288
      H1    10.40400  -14.19391   -4.67019
       H     8.68098  -11.83854   -7.30422
       O     7.80244  -12.09608   -7.03515
      H1     7.39171  -11.27205   -7.31843
       H    10.34293  -16.64913    0.20059
       O    10.33029  -15.98976    0.94012
      H1    10.00307  -15.18687    0.50887
       H     7.28480  -15.81765   -3.27951
       O     7.52692  -15.27967   -4.07826
      H1     6.91894  -15.66276   -4.73149
       H    11.08730   -6.86676   -1.23941
       O    10.32501   -6.38146   -0.92743
      H1     9.64293   -7.05262   -1.05249
       H     7.28477   -6.55376   -0.68473
       O     6.40033   -6.16610   -0.61808
      H1     6.39526   -5.62317    0.18232
       H    14.26464   -8.39280    0.85668
       O    13.32752   -8.33921    0.68322
      H1    13.14990   -9.30296    0.47838
       H    11.05924  -11.92598   -7.20865
       O    10.85519  -11.56650   -6.34841
      H1    11.19728  -10.65269   -6.40609
       H    13.91489  -12.28959   -2.95301
       O    13.18155  -11.65894   -3.11236
      H1    13.19743  -11.22201   -2.25818
       H     5.56045   -6.81539   -3.87980
       O     5.89329   -7.29560   -3.09338
      H1     6.14186   -6.55273   -2.54844
       H     9.15189   -9.44937   -4.29159
       O     8.65876   -9.43492   -5.15388
      H1     8.47237  -10.32951   -5.39429
       H    10.15753   -8.99417   -5.67881
       O    11.03708   -8.61779   -5.85365
      H1    11.10023   -7.86835   -5.26933
       H     9.38094  -12.58558   -2.85322
       O     8.70477  -12.74307   -2.20011
      H1     8.02038  -12.22186   -2.64896
       H     9.17112   -9.19952   -1.97313
       O     9.77093   -9.78119   -2.46564
      H1     9.41610  -10.66103   -2.35765
       H     5.16649   -9.32218   -2.92750
       O     4.78369   -9.91312   -3.59484
      H1     4.23799  -10.59331   -3.18338
       H     7.53377  -10.36656    0.71725
       O     6.75528  -10.21737    0.16966
      H1     6.12015   -9.69616    0.68363
       H     8.42582  -13.09092    0.83283
       O     9.38611  -13.17728    0.63016
      H1     9.29530  -12.96370   -0.30067
       H     5.97931  -11.70423   -4.76129
       O     6.85750  -11.98878   -4.61925
      H1     7.23803  -12.02578   -5.50876
       H    13.00186  -13.67864   -0.16063
       O    13.02483  -14.36626   -0.82187
      H1    12.08484  -14.38515   -1.11576
       H     7.38208   -8.20213   -6.91090
       O     7.19894   -7.47013   -6.27631
      H1     7.69318   -7.78911   -5.53416

