90
frame 2 | Written by MDAnalysis XYZWriter (release 2.4.3)
       H    15.17758   -9.56803  -12.97796
       O    14.79351   -9.29677  -13.84140
      H1    14.98872   -8.32808  -13.78008
       H    13.20646   -8.38918   -7.54509
       O    13.90279   -8.41103   -8.24822
      H1    14.42733   -7.62470   -8.15771
       H    12.58085  -11.16817   -9.50811
       O    13.48122  -11.17525   -9.09686
      H1    13.54184  -10.33000   -8.62372
       H    13.91737   -5.01179   -9.45546
       O    13.56760   -4.10257   -9.45568
      H1    12.55501   -4.24845   -9.58185
       H    16.18900   -6.48303   -7.37440
       O    15.82507   -6.57436   -6.45091
      H1    15.42102   -5.72159   -6.16504
       H    10.23144  -10.19670  -10.43773
       O    11.14028  -10.45659  -10.66596
      H1    11.00885  -11.34337  -11.07263
       H    17.28412  -13.07991  -11.37471
       O    17.87455  -12.53138  -10.77503
      H1    18.80817  -12.63900  -11.05179
       H    18.09080   -9.91733  -13.31123
       O    18.15473  -10.89817  -13.17395
      H1    17.70065  -10.96089  -12.33396
       H    17.23627  -12.81485   -7.64500
       O    17.87289  -12.07811   -7.87656
      H1    18.21803  -12.45487   -8.68498
       H    10.55057  -11.59852   -7.11440
       O    10.01524  -11.25746   -6.42163
      H1    10.14920  -10.28510   -6.40728
       H    15.69125   -5.84036   -9.86150
       O    16.10431   -5.53151   -9.05309
      H1    16.96095   -5.28689   -9.33618
       H    16.75199   -9.67749   -6.83985
       O    16.89447   -9.15137   -6.01763
      H1    16.33135   -8.40666   -6.08954
       H    18.81016   -7.39076   -8.41004
       O    18.42120   -7.84898   -9.27030
      H1    18.80878   -7.27704   -9.92868
       H    11.43999   -7.31920  -10.17027
       O    10.77604   -7.25847   -9.45554
      H1    10.69863   -6.27974   -9.46231
       H     9.36671   -8.39908  -10.08814
       O     8.83120   -9.00202  -10.58645
      H1     8.38326   -8.32573  -11.13416
       H    15.20823   -6.15185  -14.00551
       O    15.72774   -6.67242  -13.39566
      H1    16.54535   -6.20552  -13.29553
       H    16.42891  -14.81094  -11.67568
       O    15.92825  -14.21224  -12.20698
      H1    15.35138  -14.85138  -12.70468
       H    15.91259  -10.19859  -15.18231
       O    16.59297  -10.75463  -15.65373
      H1    17.21367  -10.89187  -14.92460
       H     9.42978   -5.66428  -11.84996
       O    10.27508   -5.62241  -12.26209
      H1    10.58439   -6.53197  -12.11258
       H    17.27684  -10.76166   -8.69411
       O    16.70341   -9.97214   -8.83863
      H1    17.47316   -9.30332   -9.01466
       H    11.10577   -7.77122   -7.26983
       O    11.46464   -8.44034   -6.68972
      H1    11.27771   -7.98545   -5.85128
       H    17.66852   -8.39626  -15.23214
       O    17.69745   -8.49308  -14.25808
      H1    16.79362   -8.07154  -14.23241
       H    12.12858  -13.14669   -8.70787
       O    11.23772  -12.86177   -8.90979
      H1    10.63307  -13.54002   -8.57744
       H    15.70642  -14.42962   -6.64580
       O    16.27270  -14.19034   -7.44705
      H1    15.65660  -14.26627   -8.17036
       H    10.84339  -10.28423  -14.57880
       O    10.44674  -10.03998  -13.71160
      H1    11.06748   -9.42331  -13.27544
       H    13.60512  -12.68876   -8.20138
       O    13.82304  -13.65108   -8.10885
      H1    13.73042  -13.84104   -7.15003
       H    15.82524   -9.84679  -10.30080
       O    15.15111   -9.61521  -10.95639
      H1    14.38652  -10.03698  -10.66243
       H    14.79160   -6.82419  -11.61367
       O    14.18592   -6.80340  -10.85060
      H1    14.30378   -7.70599  -10.42196
       H    12.92855   -7.77910  -11.62959
       O    11.95225   -7.87876  -11.75144
      H1    11.73464   -8.79887  -11.68685
       H    10.33587  -13.45328  -10.32243
       O     9.83501  -13.49572  -11.14770
      H1    10.42616  -14.12146  -11.60460

