90
frame 3 | Written by MDAnalysis XYZWriter (release 2.4.3)
       H     8.11353    5.69258   12.67654
       O     8.10230    6.56705   12.17320
      H1     7.24221    6.97977   12.37214
       H     9.27240   18.10851   11.58754
       O     9.30053   17.20090   11.21476
      H1     8.43525   16.81791   11.52194
       H     6.01782   13.12102   15.18702
       O     6.96953   13.29900   15.33168
      H1     7.27221   12.55534   15.88726
       H     3.77024   13.10128   14.56980
       O     4.56248   12.75506   14.20947
      H1     4.58376   12.97605   13.28752
       H     9.39542   14.97993    8.61427
       O     8.54223   14.60764    8.48960
      H1     8.71878   13.88537    7.90663
       H     9.68320    9.39106   13.02465
       O    10.22969    9.44479   12.23120
      H1    10.27345    8.58105   11.84701
       H    12.83717   11.70604    8.06588
       O    11.91712   11.90790    8.36455
      H1    12.07499   12.47966    9.14885
       H     5.16465   17.45783   11.47941
       O     4.80844   16.61325   11.75574
      H1     4.87883   16.04237   10.97796
       H     6.44645   15.69944   12.32454
       O     7.33748   15.91872   12.53364
      H1     7.76323   15.06005   12.56030
       H     3.37707   15.15021    6.87282
       O     3.92266   15.36108    7.62835
      H1     3.84528   16.32105    7.65242
       H     3.32575   11.29389    7.99654
       O     2.40236   11.58357    8.19445
      H1     2.39148   11.73353    9.15316
       H     9.73883    8.69425   15.32711
       O     9.06774    9.26540   15.00956
      H1     8.19816    8.88252   15.29315
       H     8.57293    7.48413    6.60379
       O     8.68408    7.73540    7.51547
      H1     8.12371    8.51757    7.56580
       H     9.70520   13.29012   13.61740
       O     8.79133   13.23408   13.17410
      H1     8.03366   13.03988   13.72289
       H     7.79936   18.04627    7.84814
       O     8.42188   17.30949    7.73898
      H1     8.01724   16.56164    8.20391
       H     7.42637    6.52920    7.64262
       O     6.76010    5.85227    7.49519
      H1     5.91739    6.31522    7.70834
       H     5.51738   13.54911   10.92811
       O     5.12158   12.93481   11.58483
      H1     4.19511   12.86345   11.30577
       H     6.56924   12.02544   11.02540
       O     7.11608   11.46903   10.40411
      H1     8.02079   11.63988   10.48118
       H     9.43347   12.47453   11.76559
       O     9.89075   12.02346   10.96273
      H1    10.15662   11.19770   11.33119
       H     5.02891   11.03667    5.96275
       O     4.99253   11.28027    6.90998
      H1     5.83468   10.85315    7.27737
       H    10.53394   11.09742    7.49205
       O     9.75732   11.22183    6.89619
      H1     9.78749   12.14380    6.58292
       H     7.94106   10.76319    7.74320
       O     7.14559   10.25318    7.97699
      H1     6.99743   10.53560    8.87545
       H     6.57412   14.66537    9.26031
       O     5.75852   14.87538    9.75726
      H1     5.13629   15.00535    9.02996
       H     6.25344   12.65600    6.79562
       O     6.64445   13.42251    6.45924
      H1     5.95309   14.09483    6.57863
       H     4.12823    6.82099   11.00579
       O     4.54532    7.40749   10.38566
      H1     5.06351    7.88585   11.05816
       H    11.55611   14.68538    9.88664
       O    11.70672   13.93606   10.49474
      H1    10.93886   13.35599   10.45111
       H     3.86934    5.32016    8.28855
       O     3.94360    6.30842    8.12725
      H1     4.21403    6.71712    8.97069
       H     5.57408    9.43886   12.66187
       O     6.09028    9.04107   11.94434
      H1     6.44021    9.78247   11.39905
       H     3.46494   10.11117   13.15263
       O     4.20017   10.02601   13.78543
      H1     4.51356   10.88496   14.08961
       H     2.37086   13.29591   10.20476
       O     2.65751   12.52044   10.70800
      H1     2.04969   12.14978   11.40200

