90
frame 1 | Written by MDAnalysis XYZWriter (release 2.4.3)
       H   -14.59620  -13.12053   -8.57003
       O   -15.45025  -13.09797   -8.09689
      H1   -15.45185  -14.08046   -7.95800
       H   -12.36145  -14.82606  -13.78291
       O   -12.09486  -15.39484  -14.50328
      H1   -12.49333  -16.23343  -14.24499
       H   -11.39349   -8.56040  -11.66827
       O   -11.60474   -9.26809  -12.28163
      H1   -12.46867   -9.49039  -11.95145
       H   -10.35342   -8.22974   -9.44704
       O   -10.90103   -7.57162   -9.02905
      H1   -11.17919   -6.99012   -9.77879
       H   -11.09272   -6.47511  -12.47072
       O   -11.60044   -6.52460  -11.61187
      H1   -12.57099   -6.60972  -11.88471
       H   -12.75671  -12.46270   -8.93167
       O   -12.99182  -13.39583   -9.20693
      H1   -12.28593  -13.94264   -8.81470
       H   -16.54779   -7.05097   -9.34844
       O   -16.43834   -7.52242  -10.17491
      H1   -16.45187   -8.50508   -9.98142
       H   -16.08774  -12.56313  -12.96490
       O   -15.66649  -12.97442  -12.15503
      H1   -14.74824  -13.21146  -12.41044
       H   -16.70953  -13.14632  -15.61523
       O   -15.80389  -13.14079  -15.11373
      H1   -15.58801  -14.02858  -15.39644
       H   -14.92100  -11.73721  -15.82638
       O   -14.01175  -11.36456  -15.92846
      H1   -13.99542  -10.78954  -15.15157
       H   -10.10232  -12.66981  -13.14825
       O   -10.58754  -11.90616  -13.54745
      H1   -10.59794  -11.23567  -12.86634
       H   -16.34833   -9.61480  -12.73465
       O   -15.49871   -9.11094  -12.89765
      H1   -15.49862   -8.35933  -12.23087
       H   -15.58152  -10.73426   -9.76828
       O   -15.97078  -10.01078   -9.24561
      H1   -15.13426   -9.72351   -8.83289
       H   -12.81463  -10.93699   -7.46332
       O   -12.21602  -10.97582   -8.25596
      H1   -11.37091  -10.53367   -8.08078
       H   -14.56174  -11.66188  -11.41815
       O   -14.03105  -10.89407  -11.37024
      H1   -14.64246  -10.16245  -11.71802
       H   -18.74697  -11.91016   -9.73021
       O   -19.23479  -11.12669  -10.07153
      H1   -19.19817  -10.40408   -9.41160
       H   -17.92631  -14.00518   -8.61776
       O   -17.75065  -13.26075   -9.21345
      H1   -16.91227  -12.95541   -8.74545
       H   -12.69583   -8.72258  -14.08083
       O   -12.57546   -8.48024  -15.02092
      H1   -11.59844   -8.69145  -15.12910
       H   -13.10177  -13.71424  -11.13012
       O   -13.07972  -14.01171  -12.08796
      H1   -13.55693  -14.81855  -12.06342
       H    -8.79604   -9.89546  -10.87094
       O    -8.90674   -8.99387  -10.54824
      H1    -7.92253   -8.69160  -10.63367
       H   -11.03985  -12.46770  -10.58338
       O   -10.14296  -12.78569  -10.46583
      H1    -9.57823  -12.02959  -10.65336
       H   -18.47545  -10.68398  -13.18062
       O   -18.00063  -10.30136  -12.45347
      H1   -18.42428  -10.78110  -11.72880
       H   -16.97811  -14.69348  -11.96425
       O   -17.67262  -14.95111  -11.35855
      H1   -17.67230  -14.17854  -10.74367
       H   -13.71817   -7.60825   -6.74691
       O   -13.81809   -8.16311   -7.56173
      H1   -12.87135   -8.34551   -7.74399
       H   -15.28044   -6.78280  -15.24623
       O   -15.99520   -7.42669  -15.10757
      H1   -15.70612   -7.90047  -14.32636
       H   -13.52147  -13.08550  -16.25950
       O   -12.97923  -13.82620  -16.55891
      H1   -12.92360  -14.23436  -15.67549
       H   -14.83909  -10.52598   -6.44021
       O   -14.09293  -10.84439   -5.97580
      H1   -14.14754  -10.16465   -5.24835
       H   -17.41703  -10.43580   -6.50703
       O   -16.83181   -9.68260   -6.51688
      H1   -17.07026   -9.03519   -7.18036
       H   -14.20096   -6.17169   -9.86961
       O   -13.88156   -5.69355   -9.06094
      H1   -14.09642   -6.42931   -8.45168
       H   -15.16171   -6.96885  -11.08949
       O   -14.39404   -6.77923  -11.64915
      H1   -14.72974   -5.96528  -12.07704

