90
frame 1 | Written by MDAnalysis XYZWriter (release 2.4.3)
       H    -0.63380   -0.26769   -0.68254
       O    -1.33471   -0.56532   -0.11754
      H1    -1.84192    0.29255    0.20006
       H    -1.99841    3.72848   -3.85559
       O    -1.04761    3.48683   -3.85291
      H1    -0.58160    4.29652   -3.58422
       H    -4.37837    4.66550   -3.97357
       O    -3.45552    4.89927   -4.18872
      H1    -3.53161    5.15846   -5.12148
       H    -4.17111    0.30283   -5.21882
       O    -3.44457   -0.26484   -4.92664
      H1    -2.67859    0.40389   -4.84227
       H    -3.70932   -0.01722   -3.10966
       O    -3.88006    0.50732   -2.27988
      H1    -3.05725    0.39202   -1.82623
       H    -6.14137    4.22927   -2.67536
       O    -5.87899    4.03591   -3.58581
      H1    -6.47327    3.32944   -3.81087
       H    -3.28013   -3.35214    2.12753
       O    -3.89177   -3.43321    1.34106
      H1    -4.56865   -2.83530    1.61571
       H    -7.30453    5.09062   -1.09111
       O    -6.38975    5.08328   -1.13723
      H1    -6.18926    6.01842   -1.16517
       H    -9.23276   -3.03177    3.44268
       O    -8.77514   -2.23320    3.73062
      H1    -7.85553   -2.38748    3.47628
       H    -6.08584    1.95363    2.97447
       O    -6.70345    1.60090    2.31962
      H1    -7.30352    1.08744    2.91036
       H    -9.30206   -1.43150    1.33404
       O    -9.07441   -1.11512    0.46074
      H1    -8.08741   -1.24290    0.50414
       H    -6.34782   -2.38922    0.33266
       O    -6.44347   -1.86847    1.11670
      H1    -6.03878   -1.00843    0.88427
       H    -9.90033   -1.41112   -3.51474
       O    -9.13452   -1.60622   -4.04194
      H1    -8.55699   -0.86567   -3.77392
       H    -8.86202    6.08207    1.86832
       O    -7.99431    5.96315    1.48110
      H1    -7.81995    5.04040    1.66415
       H    -7.13234    0.98913   -3.15838
       O    -7.12353    0.15666   -3.72166
      H1    -6.61031   -0.46806   -3.14345
       H    -0.30479   -1.61194    0.96202
       O     0.35033   -2.29537    1.29528
      H1     0.39535   -2.12165    2.25827
       H    -9.84343    0.55872    0.35279
       O   -10.01499    1.53428    0.30089
      H1    -9.13133    1.92555    0.33214
       H    -6.67070    2.93889   -1.74413
       O    -7.15302    2.14876   -1.53498
      H1    -6.49039    1.73832   -0.95253
       H    -2.98139    3.53941   -1.24900
       O    -2.73966    3.76924   -0.30150
      H1    -2.23624    4.58704   -0.50356
       H    -1.97962    1.71585    4.10855
       O    -2.48977    0.96204    3.75363
      H1    -3.42891    1.37472    3.88191
       H    -5.24340   -1.16738   -1.83058
       O    -6.02852   -1.72180   -2.02596
      H1    -5.61887   -2.61257   -2.12158
       H    -8.93369    3.33126   -1.57402
       O    -8.97632    4.25227   -1.28373
      H1    -9.62498    4.71205   -1.89961
       H    -3.76938   -3.85968   -1.99722
       O    -4.46346   -4.11996   -2.59179
      H1    -4.02223   -3.80984   -3.41271
       H    -4.97443    0.85228   -0.00578
       O    -5.86127    0.49362    0.08438
      H1    -6.08173    0.91436    0.93286
       H    -2.63708    1.18727    1.91572
       O    -2.74292    1.42282    0.97112
      H1    -2.20368    2.26546    0.92733
       H    -9.85518    0.81875    3.56377
       O    -9.06046    0.41623    3.92623
      H1    -9.25819   -0.54325    3.83138
       H    -6.20125   -0.68712   -6.55676
       O    -6.37729    0.19914   -6.27518
      H1    -6.45931   -0.04094   -5.29097
       H    -5.47467    5.17870    0.63738
       O    -5.02534    5.12227    1.46769
      H1    -4.18390    4.84122    1.10930
       H    -5.25335    3.04025    4.61998
       O    -4.53950    2.86140    4.03036
      H1    -4.61867    3.62950    3.44204
       H    -1.44437   -2.91543   -1.98132
       O    -2.23040   -2.94505   -1.42187
      H1    -2.07783   -2.15350   -0.90981

