90
frame 1 | Written by MDAnalysis XYZWriter (release 2.4.3)
       H    -5.46909    7.68486   -2.14423
       O    -6.45080    7.73319   -1.86324
      H1    -6.35424    8.03656   -0.96937
       H   -13.38870    8.37728   -2.49037
       O   -12.40913    8.55259   -2.46907
      H1   -12.08991    8.02090   -3.21440
       H   -11.55348   10.23152    0.98212
       O   -12.11662   10.85135    1.47512
      H1   -12.64575   11.21632    0.74169
       H    -7.30453    5.09062   -1.09111
       O    -6.38975    5.08328   -1.13723
      H1    -6.18926    6.01842   -1.16517
       H   -11.65922   13.80526   -3.09870
       O   -10.72181   13.92821   -2.78134
      H1   -10.36022   13.01490   -2.76676
       H    -6.17001    8.73756    0.94176
       O    -7.13380    8.69621    0.65760
      H1    -7.41483    7.86054    1.08091
       H   -10.85583    7.77420    0.85357
       O   -10.90382    8.58506    0.30142
      H1   -11.68076    8.38001   -0.18295
       H    -9.85054   10.94749   -1.75165
       O   -10.75819   11.08068   -2.12742
      H1   -11.09771   10.21221   -2.45229
       H   -10.71005    6.88330    3.23914
       O   -10.80210    6.63398    2.29374
      H1   -11.72617    6.23326    2.33434
       H   -11.87654    9.60114   -6.45411
       O   -11.72558    8.75942   -5.94362
      H1   -11.00288    9.00560   -5.36087
       H    -7.76307   10.62482    0.57705
       O    -7.86195   11.58890    0.77640
      H1    -8.78703   11.61720    1.19937
       H    -8.04834    8.63899    3.68031
       O    -9.00655    8.77985    3.57434
      H1    -9.07999    9.67832    3.18693
       H    -8.86202    6.08207    1.86832
       O    -7.99431    5.96315    1.48110
      H1    -7.81995    5.04040    1.66415
       H    -8.34413   11.00385   -4.03493
       O    -7.84296   11.67640   -3.48949
      H1    -6.94326   11.25913   -3.42163
       H   -10.01813   12.33923    3.14330
       O   -10.02536   11.33484    3.02550
      H1   -10.88938   11.31047    2.62610
       H   -15.03778    8.78978   -0.77590
       O   -14.27873    9.04449   -0.21497
      H1   -14.76257    9.40940    0.53763
       H   -16.08224    4.20570    0.95629
       O   -15.15415    4.05719    0.89565
      H1   -14.79551    4.93158    0.81982
       H   -10.91741    6.95047   -5.96981
       O   -10.44078    6.20275   -5.57824
      H1   -10.54159    6.36025   -4.63858
       H   -11.85979    9.76470    3.09942
       O   -12.10828    9.39876    3.95977
      H1   -11.29223    9.00014    4.28296
       H   -15.71481   11.41653    0.96731
       O   -15.78864   10.56298    1.40065
      H1   -15.79528   10.79937    2.34306
       H    -8.93369    3.33126   -1.57402
       O    -8.97632    4.25227   -1.28373
      H1    -9.62498    4.71205   -1.89961
       H    -8.68236    8.73094   -5.26789
       O    -9.09901    9.34987   -4.61102
      H1    -8.82400    9.08574   -3.72276
       H    -8.21444    7.87656   -1.79964
       O    -9.13422    8.09235   -2.07803
      H1    -9.53684    8.25628   -1.22196
       H   -10.76274    6.88103    6.12008
       O   -10.78132    6.37498    5.30993
      H1   -11.73112    6.22553    5.27614
       H   -13.32804    6.20148   -0.05141
       O   -13.57025    6.43302    0.87795
      H1   -13.82659    7.38194    0.73820
       H   -14.06417   13.32659    2.05372
       O   -14.09715   12.64725    2.73611
      H1   -13.37249   12.08814    2.38151
       H    -8.98354    8.89409    5.39230
       O    -9.04575    8.82671    6.35911
      H1    -8.48696    8.05171    6.55792
       H   -12.62697    3.51436   -1.16606
       O   -12.50493    4.38015   -1.49894
      H1   -12.98004    4.39332   -2.30812
       H   -11.31904    5.49093   -2.20377
       O   -10.66329    5.92217   -2.84114
      H1   -10.37252    6.70228   -2.28346
       H   -13.52086   10.59558   -0.84921
       O   -13.45438   11.55432   -0.88008
      H1   -12.55852   11.67384   -1.29821

