90
frame 1 | Written by MDAnalysis XYZWriter (release 2.4.3)
       H    14.49552   -9.35845  -12.85161
       O    14.34611   -8.86171  -13.67556
      H1    14.70350   -8.03983  -13.32683
       H    13.05862   -8.49632   -7.58323
       O    13.89164   -9.00267   -7.46897
      H1    14.23555   -8.84083   -6.60791
       H    12.62611  -10.75175   -9.51445
       O    13.55265  -10.91257   -9.25328
      H1    13.77763  -10.12919   -8.72448
       H    14.68805   -3.99157   -5.76697
       O    14.53892   -4.78631   -6.30385
      H1    13.83944   -5.32550   -5.97706
       H    19.29723   -5.54038  -12.77264
       O    18.51071   -5.58476  -12.24982
      H1    18.15419   -4.71154  -12.18165
       H    14.45293   -1.77101  -11.11344
       O    14.69739   -0.90348  -10.81800
      H1    14.35815   -0.82773   -9.88851
       H    13.56671   -4.42344   -8.04472
       O    13.24348   -4.14640   -8.97021
      H1    12.46487   -4.75119   -9.01431
       H    17.50567   -6.29196   -6.42339
       O    16.84060   -6.78358   -5.91226
      H1    16.04233   -6.28633   -6.10600
       H    10.45397  -10.18716   -9.71029
       O    11.10355  -10.27953  -10.42595
      H1    10.93474  -11.15742  -10.84866
       H    18.42443   -3.56909   -6.32812
       O    18.37192   -4.43448   -6.79940
      H1    17.50562   -4.34569   -7.16764
       H    13.87456   -3.75095  -10.73972
       O    14.03233   -3.35518  -11.61052
      H1    13.10985   -3.18122  -11.91517
       H    18.44395  -10.64746  -12.64877
       O    18.44208  -11.57601  -12.50625
      H1    18.59856  -11.77969  -11.58542
       H    12.84320   -8.24737  -16.70326
       O    13.61702   -8.80835  -16.44394
      H1    13.77240   -8.60571  -15.48546
       H    15.93689   -6.20344   -9.17383
       O    16.42969   -5.56391   -8.71098
      H1    17.23273   -5.41695   -9.29250
       H    18.92648   -4.24669   -8.68044
       O    18.57839   -4.04023   -9.55668
      H1    19.35805   -3.95575  -10.11982
       H    17.74357  -10.13742   -6.90180
       O    17.99691   -9.54377   -6.18039
      H1    17.58280   -8.68479   -6.26237
       H    17.10948   -2.29118  -12.00233
       O    17.07350   -2.99902  -12.65951
      H1    16.10882   -3.06553  -12.71797
       H    15.91240   -3.57072   -8.42511
       O    16.38934   -2.68846   -8.73998
      H1    17.18544   -3.18450   -9.11464
       H    10.07088   -7.74568   -7.76551
       O    10.12208   -7.92338   -8.74786
      H1    10.38170   -7.04494   -9.08592
       H    10.50524   -4.58076   -8.88593
       O    10.91501   -5.39797   -9.30019
      H1    10.83608   -5.19480  -10.25160
       H    15.75823   -6.27878  -13.82569
       O    16.18210   -6.88347  -13.16200
      H1    17.06332   -6.49018  -13.21683
       H    14.32511   -5.10639  -15.53345
       O    15.27534   -5.27644  -15.36570
      H1    15.49957   -5.95392  -16.01620
       H    15.84356  -11.01490  -15.20480
       O    16.71473  -11.18747  -14.72774
      H1    16.51414  -11.09110  -13.79713
       H     9.50328   -6.16540  -12.33198
       O    10.44302   -5.92195  -12.12495
      H1    10.88278   -6.73927  -11.89220
       H    16.82685  -10.52598   -8.92023
       O    16.90243   -9.59803   -9.27418
      H1    17.85168   -9.37196   -9.31514
       H    17.78484   -9.50728  -14.37055
       O    18.27372   -9.15541  -13.61714
      H1    17.55385   -8.55001  -13.34357
       H    11.47467   -9.65272  -14.46595
       O    10.88296   -8.98341  -14.16299
      H1    11.37126   -8.52964  -13.46917
       H    15.97386   -9.88906  -10.95969
       O    15.27334  -10.20214  -11.52017
      H1    14.76855  -10.51687  -10.78711
       H    15.65153   -7.04947  -11.29340
       O    14.95854   -7.28483  -10.66440
      H1    15.14059   -8.18945  -10.42341
       H    13.17745   -7.48700  -11.22889
       O    12.29732   -7.62936  -11.54704
      H1    12.20543   -8.56753  -11.37923

