90
frame 4 | Written by MDAnalysis XYZWriter (release 2.4.3)
       H   -18.03110  -13.19713  -10.99335
       O   -17.41046  -12.71301  -11.54716
      H1   -17.08105  -12.07343  -10.91840
       H   -14.12012  -18.27179   -8.19797
       O   -14.95450  -18.42805   -7.81508
      H1   -15.54378  -17.67664   -8.00905
       H   -13.63667   -9.10015  -11.28899
       O   -14.44501   -9.19504  -11.78458
      H1   -15.13971   -9.51176  -11.18643
       H   -17.40387  -15.80178   -7.43152
       O   -16.66721  -16.32238   -7.73525
      H1   -16.42502  -16.03159   -8.60025
       H   -17.91191  -12.86654  -16.26837
       O   -18.02646  -13.70049  -15.78322
      H1   -18.50056  -14.34907  -16.34809
       H   -14.60304  -10.22145  -13.27541
       O   -14.97023  -10.73357  -14.01214
      H1   -15.94248  -10.62942  -13.88987
       H   -15.06736  -10.15664  -17.00784
       O   -14.45282   -9.58940  -16.56468
      H1   -14.50678  -10.03844  -15.68462
       H   -16.97505   -9.58033  -10.44364
       O   -16.43144  -10.37628  -10.51649
      H1   -16.09505  -10.46055   -9.58113
       H   -14.42727  -12.04591  -12.98946
       O   -14.08778  -12.54267  -12.25116
      H1   -13.23363  -12.19301  -11.93503
       H   -18.43295  -19.27479   -7.30001
       O   -18.57028  -18.46285   -7.86494
      H1   -17.89728  -17.84517   -7.49740
       H   -18.00208   -7.54223   -8.77664
       O   -17.95057   -8.17296   -8.05238
      H1   -18.40714   -7.73951   -7.33523
       H   -19.16028  -13.99525  -13.34516
       O   -19.17367  -14.91640  -12.96370
      H1   -18.24036  -15.09935  -12.88072
       H   -17.31204  -11.08051  -17.45783
       O   -16.98157  -11.07935  -16.53403
      H1   -17.24197  -10.19237  -16.20863
       H   -15.64271   -6.66352  -14.53302
       O   -16.22978   -6.71376  -13.73243
      H1   -16.70534   -7.56083  -13.82998
       H   -14.81653  -13.81425  -16.74726
       O   -15.45953  -14.60263  -16.72571
      H1   -16.36721  -14.24813  -16.66409
       H   -15.65113  -14.37579  -13.55025
       O   -15.81817  -15.09780  -14.18639
      H1   -15.64815  -14.83792  -15.07428
       H   -19.74107  -14.99022   -7.14472
       O   -18.85227  -14.77930   -6.86450
      H1   -18.77631  -14.99868   -5.92469
       H   -18.29525  -10.92788  -14.10422
       O   -18.86722  -11.23925  -13.37667
      H1   -18.20165  -11.64838  -12.76636
       H   -12.64285  -18.78064  -10.94382
       O   -13.56333  -18.41003  -10.90576
      H1   -13.62188  -17.76744  -11.60981
       H   -19.07073  -18.75694  -10.94159
       O   -18.24201  -18.31982  -10.78349
      H1   -18.22688  -18.46068   -9.76982
       H   -18.57587   -8.73545  -15.00396
       O   -17.60501   -8.91501  -14.87712
      H1   -17.13920   -8.44558  -15.56859
       H   -19.67431  -11.62889   -7.47651
       O   -18.89513  -12.08500   -7.67270
      H1   -19.01331  -13.02369   -7.36817
       H   -11.86302  -11.42749   -6.38514
       O   -12.56326  -10.79158   -6.32127
      H1   -13.39457  -11.20081   -6.63532
       H   -14.57173  -13.25402   -7.75858
       O   -14.54567  -12.38776   -7.25351
      H1   -15.28166  -11.82930   -7.51448
       H   -18.29833  -17.26719  -15.49631
       O   -17.65960  -16.73167  -15.96092
      H1   -17.20638  -16.14170  -15.31831
       H   -13.73190  -17.49310  -14.59820
       O   -13.83764  -16.87243  -13.84339
      H1   -14.52289  -16.26891  -14.16047
       H   -15.18440  -14.93153  -10.10258
       O   -16.06303  -15.16964  -10.41927
      H1   -16.39707  -14.37563  -10.73596
       H   -12.91048  -15.29327   -9.77213
       O   -13.67594  -15.13228   -9.18368
      H1   -13.59800  -15.42465   -8.29213
       H   -17.20981  -11.18167   -7.33531
       O   -16.55844  -10.44484   -7.39269
      H1   -17.04865   -9.65616   -7.67784
       H   -14.54513  -15.87983   -5.83178
       O   -13.97539  -15.40372   -6.42397
      H1   -14.01133  -14.65395   -5.84444

