90
frame 0 | Written by MDAnalysis XYZWriter (release 2.4.3)
       H     6.51710   13.27345   13.18577
       O     6.24050   12.61813   13.82809
      H1     7.11426   12.22297   14.00660
       H     5.55583    8.66749   14.77563
       O     5.63453    7.96194   15.43357
      H1     5.54419    7.12344   14.94698
       H    10.24802   14.51707   14.05314
       O     9.43695   14.13556   13.63104
      H1     8.80554   14.56125   14.25599
       H    10.54473   10.51309   11.81305
       O     9.73330   10.35289   12.33996
      H1    10.02467    9.49345   12.71913
       H     6.79572   11.37506   17.15806
       O     7.48938   11.63582   17.79319
      H1     7.01455   11.38816   18.64541
       H     0.21800   10.53150   14.08619
       O    -0.03594   11.12445   13.32462
      H1     0.64367   11.01650   12.68795
       H     2.42900    9.63162   13.75483
       O     3.16504   10.13609   13.39699
      H1     3.34536   10.80387   14.03839
       H     3.71172    9.74069   17.41824
       O     4.17656   10.56957   17.48771
      H1     3.59338   11.14668   16.98175
       H     2.85710   13.19841   13.43937
       O     3.01722   14.10282   13.14265
      H1     3.11230   14.06110   12.16617
       H     3.16644    7.99045   10.10936
       O     3.49649    8.69827   10.69629
      H1     3.19692    8.30524   11.53473
       H     2.73238    6.33938   12.02093
       O     3.24004    6.78379   12.73443
      H1     2.59047    7.40241   13.04184
       H     9.13263   11.26403   13.68309
       O     8.78258   11.82120   14.42465
      H1     9.13029   12.67338   14.08659
       H     7.32529    8.41903   13.35752
       O     7.92422    7.67887   13.15672
      H1     8.51266    7.78485   13.88524
       H     1.18827   10.97154   16.86735
       O     0.90374   10.20228   16.33278
      H1     1.63825    9.58246   16.54791
       H     6.22114   15.40557   15.06459
       O     7.17073   15.30930   15.10027
      H1     7.40753   16.19887   14.82518
       H     6.34980    8.64475    9.25904
       O     5.69946    9.23064    8.91218
      H1     4.94460    9.32120    9.61671
       H    10.05717   11.33463   15.46578
       O    10.81783   10.95369   16.07211
      H1    10.19955   10.29027   16.49326
       H     2.61137    7.54515   17.79082
       O     2.86438    8.15464   17.09525
      H1     3.56892    7.68414   16.67552
       H    10.21026   11.94449    9.65891
       O     9.25960   12.04521    9.37075
      H1     8.84290   11.87764   10.25181
       H     7.87033   10.04683   15.29788
       O     8.08051    9.14881   15.72784
      H1     7.48201    8.44557   15.46112
       H     5.97077   11.78856   10.67017
       O     6.90347   11.88794   10.78508
      H1     7.09993   11.86086    9.81065
       H     4.46503   14.15944    9.31174
       O     4.22728   14.38372   10.24841
      H1     3.29217   14.36362   10.13733
       H     2.38342   12.63570   16.14753
       O     3.11401   12.38306   15.61604
      H1     3.70413   13.16805   15.61996
       H     7.92412    6.74498   10.54735
       O     7.89858    7.69005   10.29653
      H1     7.79175    8.17271   11.10646
       H     6.35764    4.99251   15.19465
       O     6.14172    5.53713   14.39149
      H1     6.97234    5.54131   13.84435
       H     6.04328   14.50618   11.29954
       O     6.65324   14.92922   11.87830
      H1     7.56511   14.65226   11.60318
       H     4.97495    9.38547   12.82586
       O     5.86816    9.58895   13.11116
      H1     5.72647   10.48901   13.45702
       H     3.73244   15.09566   14.54885
       O     4.21900   15.46513   15.29845
      H1     4.07502   16.43575   15.12863
       H     2.47854   10.25051   10.29713
       O     1.99684   11.08568   10.45924
      H1     2.19362   11.43457    9.59874
       H     6.86323    8.08272   17.71297
       O     7.36685    7.29190   18.03633
      H1     6.89102    6.49602   17.61918

