90
frame 1 | Written by MDAnalysis XYZWriter (release 2.4.3)
       H     3.60940   17.07542  -17.64821
       O     3.90407   17.73180  -18.30110
      H1     3.34527   17.61118  -19.12173
       H     7.90366   16.07854  -15.37993
       O     8.66892   16.02905  -14.78243
      H1     8.64565   16.95481  -14.42467
       H     9.94939   15.98001  -16.11440
       O    10.63712   15.85930  -16.75358
      H1    10.64424   14.87698  -16.79763
       H     7.05002   18.82288  -13.17363
       O     6.37891   18.68243  -12.52236
      H1     6.04734   19.55536  -12.47800
       H     5.62466   19.25203   -7.94430
       O     6.45049   19.80482   -7.95582
      H1     6.99905   19.44503   -8.65522
       H     7.92330   16.03345  -19.82955
       O     7.47401   16.53323  -19.17214
      H1     8.20903   17.03029  -18.68424
       H     1.93102   16.34979  -12.15018
       O     1.64208   17.15197  -11.59618
      H1     1.70116   17.89590  -12.21766
       H    11.22772   15.29088  -12.53067
       O    11.16721   14.38318  -12.27941
      H1    10.26083   14.16956  -12.02378
       H     7.12730   12.74573  -14.93381
       O     7.57146   13.06904  -15.70994
      H1     8.45801   13.35901  -15.51740
       H    11.76887   19.44123  -11.63563
       O    12.65696   19.81676  -11.59282
      H1    13.03631   19.00382  -11.14405
       H    11.14880   14.99456  -10.44986
       O    11.00905   15.50881   -9.64198
      H1    11.88378   15.96082   -9.58011
       H     2.65658   19.27815  -17.62970
       O     1.81510   19.70960  -17.42915
      H1     1.16960   18.97195  -17.46387
       H     5.00979   17.23147   -8.26883
       O     4.50549   18.05161   -8.26990
      H1     3.66257   17.71911   -8.63805
       H    12.64796   16.28412  -13.92606
       O    12.43906   16.81582  -13.16384
      H1    12.00392   17.57918  -13.66763
       H     9.00667   19.32392  -14.28144
       O     8.24500   18.98350  -14.75950
      H1     8.41512   19.36885  -15.64978
       H    10.10098   16.93019  -18.08055
       O     9.70480   17.74273  -18.51204
      H1     9.86038   17.52785  -19.44973
       H     2.59732   18.69028  -14.09258
       O     2.06039   19.14964  -13.43328
      H1     2.73055   19.54663  -12.78924
       H     6.60281   16.21558   -8.69319
       O     5.83650   15.78137   -8.25813
      H1     5.87012   14.82770   -8.26630
       H    11.43654   18.83142  -15.22686
       O    11.38569   19.03141  -14.27449
      H1    12.16223   19.53051  -14.04966
       H     8.49856   15.01080  -13.17140
       O     8.31461   14.39844  -12.47225
      H1     7.36222   14.51388  -12.21541
       H     3.72561   15.29214  -15.17347
       O     3.05683   15.91654  -15.54048
      H1     3.68296   16.65627  -15.70329
       H     5.26256   17.82886  -15.17299
       O     4.41552   18.25099  -14.98875
      H1     4.66037   19.16074  -15.21450
       H     6.13166   17.24755  -10.20682
       O     7.07006   17.58799  -10.20942
      H1     6.98022   18.14919  -11.08159
       H     5.39905   13.84172  -12.17186
       O     5.77062   14.37526  -11.43020
      H1     5.15202   15.13243  -11.42069
       H     9.76395   18.48718  -10.83595
       O    10.06137   19.09802  -11.51674
      H1     9.32588   19.72394  -11.45781
       H     6.64735   16.36396  -17.62146
       O     6.60788   16.16349  -16.65143
      H1     6.59296   15.17327  -16.71383
       H     3.66492   17.21902  -11.85192
       O     4.50752   16.88099  -11.48323
      H1     5.07016   17.28149  -12.21837
       H     9.90715   16.94484   -9.39677
       O     9.31751   17.71737   -9.19973
      H1     8.51067   17.38679   -9.56475
       H    10.99116   18.72767  -17.53244
       O    11.59250   19.26243  -16.92406
      H1    12.40939   19.08236  -17.42068
       H     4.28354   12.80622  -13.88136
       O     4.76452   13.62888  -13.99944
      H1     5.25423   13.39365  -14.80633

