90
frame 0 | Written by MDAnalysis XYZWriter (release 2.4.3)
       H   -10.43805   10.94596    1.83033
       O   -11.09235   10.81828    2.55329
      H1   -11.86747   11.20695    2.14410
       H    -2.68699   13.78505    3.86905
       O    -2.80705   14.69596    3.61132
      H1    -3.43905   14.68461    2.87743
       H    -4.83495   18.66191    5.15821
       O    -5.72164   18.45268    4.82866
      H1    -5.57150   18.08064    3.92557
       H    -7.98969   16.73037    4.70319
       O    -8.75701   16.75159    4.13872
      H1    -8.77416   15.92494    3.61729
       H    -3.77048    9.94335    0.07813
       O    -3.54129    9.08338   -0.32193
      H1    -4.15102    8.87777   -1.09810
       H    -9.08001   10.89252   -0.19276
       O   -10.06797   10.85452   -0.07805
      H1   -10.37624   10.13605   -0.66552
       H    -7.05117    8.96911    2.10127
       O    -6.34237    8.75522    1.39159
      H1    -6.50808    7.82854    1.18423
       H    -7.62412   13.53888    1.93407
       O    -6.87193   13.22178    1.37951
      H1    -7.27563   12.44149    0.90942
       H    -4.37315    9.10139    2.62533
       O    -4.14268    9.62953    3.38598
      H1    -4.57396   10.49992    3.26191
       H    -5.96938    8.08163    5.84587
       O    -6.04938    8.50225    4.97362
      H1    -5.17588    8.85262    4.62963
       H    -7.99724   15.17298   -1.82885
       O    -7.73951   15.68339   -1.06318
      H1    -7.42774   14.97689   -0.52342
       H   -10.91693   12.39241   -0.21075
       O   -11.00853   13.31531   -0.44872
      H1   -10.60534   13.33225   -1.33824
       H    -0.91326   13.71364    1.21498
       O    -1.53698   13.66638    0.48305
      H1    -1.16852   14.34554   -0.14135
       H    -5.50493   14.56360    1.56169
       O    -4.76856   15.13433    1.62447
      H1    -5.01273   15.87992    2.22963
       H    -5.20612   12.52848    4.17644
       O    -5.05924   12.11988    3.27049
      H1    -5.58750   12.62704    2.63590
       H    -6.78263   11.46203   -0.80858
       O    -7.40100   10.92358   -0.25147
      H1    -6.84379   10.15411    0.06983
       H    -9.60316   13.44472    3.54678
       O    -9.08731   13.90845    2.86862
      H1    -9.90705   14.11129    2.41667
       H    -2.37586   11.98566    4.95263
       O    -2.04680   12.11682    3.97204
      H1    -2.12669   11.30042    3.49749
       H   -10.90440   11.94680    4.11518
       O   -10.62171   12.60050    4.77106
      H1   -10.17008   12.01944    5.36902
       H    -3.98276   11.98895    1.42534
       O    -3.91537   11.78972    0.48717
      H1    -3.21578   12.44767    0.32785
       H    -7.57024    9.01715    4.16294
       O    -8.36725    8.75506    3.62892
      H1    -8.53105    7.85717    4.04515
       H    -5.38036   12.49395   -2.47709
       O    -5.71718   12.70919   -1.55731
      H1    -4.97674   12.46597   -0.95533
       H    -6.76553   17.57689    1.68908
       O    -5.92157   17.56118    2.25409
      H1    -5.12798   17.81886    1.73673
       H    -4.88557   16.75845   -1.97674
       O    -5.70676   16.95196   -2.46014
      H1    -6.29461   16.49529   -1.84122
       H    -8.34813   17.10215   -0.10645
       O    -8.36198   17.35183    0.86772
      H1    -8.63222   18.28807    0.86175
       H    -6.12611   17.11196    5.93796
       O    -6.58235   16.27436    6.17355
      H1    -6.85057   16.28764    7.10563
       H   -10.44699   14.50706   -3.48702
       O    -9.75046   13.90740   -3.08916
      H1    -9.26906   13.59936   -3.86658
       H   -10.71163   14.85067    0.47453
       O   -10.60452   15.67297    0.99609
      H1    -9.72324   16.06357    0.92881
       H    -4.95334   15.71000    5.83952
       O    -4.00544   15.70462    5.86884
      H1    -3.60778   15.19973    5.08279
       H    -6.60888   13.69919    5.79401
       O    -5.89752   13.01743    5.80074
      H1    -6.47650   12.21962    5.96762

