90
frame 2 | Written by MDAnalysis XYZWriter (release 2.4.3)
       H   -12.81161    7.46038   14.58465
       O   -12.00910    7.19067   15.02367
      H1   -11.60406    8.01588   15.43665
       H   -10.08824    7.78110   14.19738
       O    -9.51764    7.76686   13.44701
      H1    -8.58780    7.81146   13.80987
       H   -13.89401    9.41300   12.89411
       O   -13.69728   10.32131   13.07897
      H1   -12.75113   10.32184   13.30707
       H   -10.95639    4.39792   14.26692
       O   -11.00169    5.04322   13.56000
      H1   -11.29845    5.84772   13.96543
       H   -10.05593    5.22504   18.81051
       O   -10.77559    5.10724   18.15082
      H1   -11.16951    4.19186   18.40740
       H   -10.52635    2.54944   16.31345
       O   -10.60996    3.43910   15.90067
      H1   -10.55772    4.01067   16.65695
       H   -14.94967    8.19832   14.12327
       O   -14.52243    7.48611   13.61641
      H1   -15.07140    7.62965   12.74706
       H   -10.14218    5.20221    8.98456
       O    -9.56830    5.93080    9.16042
      H1    -9.39414    5.78113   10.17646
       H    -8.91500    2.98940   14.94754
       O    -8.26808    2.81886   14.24723
      H1    -7.78698    2.08699   14.71599
       H    -8.92406   11.68689   12.02084
       O    -9.32253   12.21848   12.68179
      H1    -9.92147   11.65368   13.15842
       H    -6.14649   10.90055   14.85861
       O    -5.95679   10.15342   15.44632
      H1    -6.32378    9.47294   14.88330
       H    -6.67288    7.34157   13.64252
       O    -6.95156    7.94626   14.33236
      H1    -7.22904    7.23994   14.99904
       H   -13.48445    8.56614   18.43016
       O   -12.81446    8.09491   17.93128
      H1   -13.25644    7.21320   17.76981
       H   -10.74457   10.08973   14.62096
       O   -10.89509   10.44908   13.71778
      H1   -10.43963    9.82425   13.14999
       H    -8.05833   10.34875   18.01929
       O    -8.15802   10.08489   17.11803
      H1    -7.29633   10.38861   16.71346
       H   -10.25372    8.60656   11.56485
       O   -10.56757    9.47680   11.29608
      H1   -10.78233    9.49059   10.32728
       H   -11.19207    7.62397   19.01455
       O   -10.63921    7.99176   19.74191
      H1    -9.79379    7.77709   19.39772
       H    -9.22217    6.27685   12.50235
       O    -8.75317    5.78880   11.77310
      H1    -8.60686    4.92288   12.17916
       H    -8.01176   11.18313   10.14772
       O    -7.46291   10.90536   10.94656
      H1    -6.75233   11.59678   10.85185
       H   -11.49006    6.53728    9.55138
       O   -12.39871    6.31816    9.42570
      H1   -12.39736    6.03730    8.41704
       H   -11.00585   11.88894   11.76523
       O   -11.57740   12.15815   10.98398
      H1   -12.08425   11.37778   10.84912
       H    -6.13881    9.70126   10.80441
       O    -5.25114    9.31012   10.78741
      H1    -4.73492    9.97366   10.38796
       H    -5.33478    4.08577   14.39680
       O    -5.85364    4.38159   15.15742
      H1    -6.64058    3.88819   15.06115
       H   -15.16478    5.69137   13.74456
       O   -15.80451    4.92796   13.80224
      H1   -15.48857    4.46512   14.58329
       H   -13.67972    5.32923   18.62622
       O   -13.63202    5.59845   17.69172
      H1   -12.62648    5.46992   17.56281
       H    -5.71952    7.16268   11.69292
       O    -6.12087    6.38185   12.09195
      H1    -7.08318    6.40413   11.78932
       H   -12.37225    2.71100   12.06977
       O   -11.44303    2.89065   12.25134
      H1   -11.45171    3.87600   12.41080
       H    -9.91942    9.57506   16.64409
       O   -10.63489    9.11629   16.21442
      H1   -11.17103    8.78885   16.94127
       H   -14.00764   10.74516   11.46448
       O   -14.17240   10.85089   10.47559
      H1   -15.03277   11.36834   10.51623
       H    -8.00798    6.06450   17.02439
       O    -8.35971    6.66308   16.31458
      H1    -8.14008    7.59055   16.61261

