90
frame 2 | Written by MDAnalysis XYZWriter (release 2.4.3)
       H   -11.50953    8.86940  -10.67308
       O   -11.12457    8.02443  -10.40795
      H1   -10.36258    8.21110   -9.85720
       H   -17.99816   11.97494   -7.85929
       O   -17.74666   12.09617   -8.81375
      H1   -17.68413   13.09638   -8.77988
       H   -13.05211    8.78470  -14.24159
       O   -13.83244    9.19699  -13.83051
      H1   -14.50799    9.00739  -14.46129
       H   -19.07169   14.95478  -10.38854
       O   -19.34960   15.26735   -9.50630
      H1   -19.18998   16.19206   -9.63811
       H    -9.18423   13.20230  -14.43301
       O    -9.70429   12.57722  -14.97972
      H1   -10.52542   12.37615  -14.43026
       H   -16.06654   15.39329  -13.68214
       O   -15.90339   15.54640  -12.72546
      H1   -16.32505   14.78947  -12.32459
       H   -12.40633   10.31250  -11.90662
       O   -12.55765   10.26252  -10.96101
      H1   -12.52234   11.20219  -10.66804
       H   -15.31779   16.97791   -9.61324
       O   -14.45239   17.36241   -9.72717
      H1   -14.24390   17.20189  -10.68502
       H   -14.02902   16.05149  -12.35363
       O   -13.24648   16.57464  -12.01425
      H1   -13.34700   17.34492  -12.58200
       H   -15.11649   10.86448   -9.22668
       O   -14.92159   11.60691   -8.65883
      H1   -15.75720   12.16270   -8.77531
       H   -15.71832    7.30610   -8.94726
       O   -16.38158    6.69420   -8.61682
      H1   -17.11514    6.95388   -9.14225
       H   -15.64292   11.59793  -14.97853
       O   -16.39775   11.19859  -14.49017
      H1   -16.20261   11.34273  -13.55824
       H   -18.83657   17.12814  -12.77477
       O   -17.98405   17.61885  -12.66662
      H1   -17.39953   16.88593  -12.62486
       H   -10.13531   13.89025  -10.33543
       O   -10.43877   13.01942   -9.98658
      H1   -10.11159   13.14067   -9.03512
       H   -16.34750   14.98145   -8.15233
       O   -16.66730   14.60219   -8.99301
      H1   -17.52439   15.07644   -9.04990
       H   -13.77524    7.44196  -12.96001
       O   -13.16905    6.69112  -12.94016
      H1   -12.38844    7.03603  -13.40417
       H   -11.26381   16.25021  -14.32166
       O   -11.42076   15.45460  -13.74287
      H1   -12.17222   15.70558  -13.18313
       H   -12.72434   12.30710  -14.13229
       O   -11.94746   12.40877  -13.56182
      H1   -11.86148   13.37263  -13.64680
       H   -13.76718   11.18943  -15.60763
       O   -13.75358   12.13006  -15.47744
      H1   -13.06572   12.47603  -16.02287
       H   -13.67351   12.91660   -9.61273
       O   -13.22499   12.96805  -10.47541
      H1   -12.28506   13.14793  -10.28679
       H   -14.74138   11.82092   -6.84604
       O   -14.71148   11.45925   -5.96307
      H1   -15.21814   10.68956   -5.95295
       H   -12.85699   13.50554   -6.28226
       O   -12.58424   13.51083   -7.23660
      H1   -11.65923   13.93526   -7.15014
       H   -18.12816   13.00222  -11.75664
       O   -17.64851   13.77251  -11.48702
      H1   -16.88153   13.36654  -11.06479
       H   -17.82276    9.26877  -10.80636
       O   -17.19022    9.94701  -10.60344
      H1   -17.68020   10.55508  -10.04457
       H   -16.07326   11.28164  -11.26929
       O   -15.58650   11.72075  -11.95189
      H1   -14.74953   11.92263  -11.49012
       H   -19.27801   12.53993  -13.94327
       O   -18.70440   12.75397  -14.67944
      H1   -17.83471   12.36592  -14.41491
       H   -12.58448   11.36436   -7.53189
       O   -12.15082   10.46449   -7.57510
      H1   -12.84164    9.96648   -8.07860
       H   -16.30588    9.54639  -14.83875
       O   -16.11390    8.71061  -15.28230
      H1   -16.75081    8.05819  -14.94111
       H   -15.31837    9.11900  -10.22804
       O   -14.48553    9.07051   -9.67680
      H1   -13.93680    9.57522  -10.26417
       H   -17.56824   14.49785  -15.34157
       O   -16.70705   14.91050  -15.53824
      H1   -17.01994   15.56578  -16.18730

