90
frame 3 | Written by MDAnalysis XYZWriter (release 2.4.3)
       H     5.61548   -1.57472    3.64967
       O     5.24170   -1.04850    2.99288
      H1     5.82570   -0.35457    2.63345
       H     0.69831    3.98704    3.43229
       O     0.85654    4.92936    3.50549
      H1     1.33302    5.29476    2.70519
       H     6.95627    3.01458    5.00542
       O     7.40480    2.19838    4.75904
      H1     7.27343    1.56148    5.45421
       H     5.46598   -2.20731    1.72334
       O     5.80645   -2.79968    0.99185
      H1     6.63101   -2.39096    0.72391
       H     4.62240    4.44269    2.19909
       O     4.75547    3.48372    2.32082
      H1     3.80889    3.22265    2.29156
       H     1.54810    2.31908    1.48873
       O     2.35756    2.33052    0.92406
      H1     2.28436    1.44684    0.49433
       H     3.78907    6.03818    5.81414
       O     3.37865    6.14591    4.95882
      H1     2.99828    5.32116    4.72423
       H     4.10015   -0.12950    3.82687
       O     3.61414    0.34735    4.53853
      H1     3.75374    1.27047    4.50665
       H     6.93011    4.89149    4.45396
       O     6.41349    4.60368    5.17606
      H1     6.63171    5.25512    5.89512
       H     9.89679   -0.74827    2.24606
       O     9.17559   -0.43693    2.87699
      H1     8.45355   -0.00786    2.32650
       H     1.32083    6.99589    1.27093
       O     2.00102    6.35709    1.55734
      H1     2.63850    6.88257    2.02336
       H     5.08664    2.90461    0.57674
       O     5.53357    2.75424   -0.27365
      H1     5.23331    3.35156   -0.98775
       H     3.86756    3.58171   -4.02293
       O     3.28205    3.69565   -4.78073
      H1     2.36302    3.77995   -4.37382
       H     5.64484    1.04831   -2.82037
       O     4.89083    0.54599   -3.24869
      H1     4.36039    0.59283   -2.46041
       H     1.36201    4.42407   -1.73756
       O     2.04062    3.72454   -1.74146
      H1     1.90193    3.41380   -0.83678
       H     3.15401    6.77447   -0.13515
       O     3.64522    7.57653   -0.49943
      H1     3.70480    7.35160   -1.41332
       H     8.23925    6.08097    3.40969
       O     7.79497    5.47410    2.81426
      H1     8.40544    5.49734    2.09103
       H     8.25461    7.24713    0.39674
       O     8.93228    6.61022    0.19975
      H1     8.49161    5.75535   -0.04518
       H     6.49624    1.64268    1.43893
       O     6.70325    1.11083    2.16774
      H1     6.67595    1.64040    3.00518
       H     4.35271    7.92306    2.62223
       O     3.75977    8.61485    2.97646
      H1     3.59549    9.15649    2.22095
       H     7.52432    2.20189   -3.28423
       O     7.33628    1.58181   -2.53750
      H1     8.02819    1.74726   -1.85784
       H     3.94478    4.37487   -2.13532
       O     4.92326    4.23484   -2.31130
      H1     5.22630    5.16009   -2.29795
       H     7.18322    6.00524   -3.08445
       O     6.34005    6.44865   -2.87971
      H1     6.49675    7.33554   -3.24202
       H    -0.51494    2.31972    2.32149
       O     0.23220    2.43416    2.93124
      H1     0.42207    1.70872    3.52006
       H     3.94025    2.76138    6.36535
       O     3.78081    3.32496    5.61733
      H1     4.60275    3.69996    5.34634
       H     4.36639    0.92555    0.08654
       O     3.75339    0.41511   -0.46228
      H1     3.56086   -0.41971   -0.03257
       H     4.72927    6.13216    3.54508
       O     5.09304    6.06238    2.64783
      H1     6.05091    5.98635    2.80609
       H     7.26981    3.40585   -0.38796
       O     8.13471    3.86226   -0.38967
      H1     8.82631    3.51207    0.21318
       H     8.93906    6.21373   -2.38633
       O     8.74834    5.39771   -2.82410
      H1     8.57864    4.73555   -2.08734
       H     9.59163    0.69696   -1.23067
       O     8.99828    0.55844   -0.47801
      H1     9.61703    0.63480    0.30155

