90
frame 1 | Written by MDAnalysis XYZWriter (release 2.4.3)
       H    -9.31404  -11.93948    8.58908
       O    -8.60186  -12.55695    8.33759
      H1    -8.79336  -12.66558    7.36894
       H   -10.42577   -1.21185    8.12678
       O   -10.90515   -1.66865    7.38450
      H1   -10.17237   -2.11761    6.91371
       H    -7.99490   -7.81258   10.02674
       O    -7.39002   -7.30647   10.54648
      H1    -6.58063   -7.30779   10.02643
       H    -8.36940   -9.59486    2.19923
       O    -8.94997   -9.70332    3.00575
      H1    -8.84080   -8.80918    3.50150
       H   -13.26152   -7.22607    4.57268
       O   -12.92098   -6.49544    3.99534
      H1   -13.75008   -6.04450    3.79905
       H    -6.66017   -8.29060    6.97324
       O    -7.36043   -7.63301    6.75610
      H1    -7.91295   -7.92419    7.47186
       H   -11.40542   -7.21048    7.57197
       O   -10.84023   -6.50121    7.23418
      H1   -11.51771   -5.78826    7.04052
       H    -7.94044   -7.59714    4.87021
       O    -8.76036   -7.39422    4.34271
      H1    -9.31705   -6.95153    4.98224
       H    -9.23276   -3.03177    3.44268
       O    -8.77514   -2.23320    3.73062
      H1    -7.85553   -2.38748    3.47628
       H   -14.44790   -5.99214   11.14805
       O   -14.35238   -6.70752   10.52129
      H1   -14.02292   -6.31495    9.68612
       H   -13.31419   -7.45639   12.22145
       O   -13.79971   -7.66588   13.06581
      H1   -13.30630   -7.18926   13.75319
       H   -10.35250  -10.81458    3.69798
       O   -10.68145  -11.45217    4.34698
      H1    -9.95860  -12.12500    4.25492
       H   -13.63744   -7.34388    6.77367
       O   -13.59908   -6.83972    7.61105
      H1   -13.56927   -5.90372    7.28145
       H    -8.21961   -2.59247    9.36673
       O    -7.61870   -3.36232    9.14016
      H1    -6.73683   -3.10141    9.35566
       H   -11.46226  -12.10560    5.92558
       O   -11.90714  -12.30303    6.76364
      H1   -12.79573  -12.00067    6.66501
       H   -12.29852   -3.84436    6.70071
       O   -12.75451   -4.59000    6.39068
      H1   -12.53704   -4.70730    5.46602
       H    -9.85098   -9.18322    8.56600
       O    -9.31682   -8.41193    8.62714
      H1    -9.90045   -7.70589    8.29643
       H    -9.16181   -2.87939    5.15710
       O    -9.38566   -3.49897    5.90152
      H1    -8.58017   -3.89381    6.22223
       H   -11.79151   -7.35564    1.30845
       O   -11.72376   -6.40925    1.58774
      H1   -12.00310   -6.45143    2.51052
       H    -7.74469   -4.64023    7.81696
       O    -7.25564   -4.98477    7.00112
      H1    -7.44886   -5.97389    7.01879
       H   -12.30185   -2.66523   10.47127
       O   -12.32001   -3.33836   11.16433
      H1   -11.35561   -3.62210   11.13184
       H   -15.56305   -3.53967    8.43421
       O   -16.07924   -2.76373    8.39620
      H1   -15.85973   -2.34295    7.55846
       H    -4.48836   -5.78329    8.06116
       O    -4.65010   -5.08546    7.42863
      H1    -5.63764   -5.04918    7.33324
       H   -13.57563   -9.22653    6.20292
       O   -14.16747   -8.65828    5.67964
      H1   -14.97214   -9.19797    5.55915
       H   -13.90001   -2.14648    4.82341
       O   -14.00794   -2.59602    3.99033
      H1   -14.37900   -3.46549    4.41227
       H   -12.05586  -10.45135    7.49025
       O   -12.13150   -9.49216    7.65029
      H1   -12.64081   -9.53194    8.42648
       H   -16.77286   -6.04173    9.35505
       O   -16.93451   -6.90079    8.92407
      H1   -16.13933   -7.42786    9.15910
       H   -10.07547   -5.24869    2.16596
       O    -9.30790   -4.97227    2.70797
      H1    -9.16039   -5.68202    3.33066
       H   -16.35112   -5.91860    7.47165
       O   -16.38765   -5.38624    6.61412
      H1   -17.30682   -5.48899    6.34748
       H    -8.28837   -3.60654   11.77520
       O    -9.19415   -3.97974   11.71273
      H1    -8.90425   -4.59306   11.01775

