90
frame 2 | Written by MDAnalysis XYZWriter (release 2.4.3)
       H     5.01838   -1.36412    7.68723
       O     5.03375   -2.12330    7.09447
      H1     4.75696   -2.72448    7.84158
       H     1.47851   -1.55974    5.07735
       O     0.87731   -1.54847    4.26601
      H1     0.07863   -1.48167    4.71865
       H    -0.04210   -4.14215    6.37567
       O     0.43464   -4.97221    6.05829
      H1     1.02189   -5.22828    6.79173
       H    -4.01183   -7.34440    4.94829
       O    -4.82742   -6.78175    4.98113
      H1    -4.86713   -6.39705    5.88472
       H    -2.97809   -3.27120    9.78161
       O    -3.94496   -3.36737    9.82675
      H1    -3.97512   -3.25352    8.87506
       H    -2.28970   -8.15998    5.89174
       O    -2.50364   -8.21146    4.94532
      H1    -1.96648   -7.44828    4.63271
       H    -1.98274   -4.45363   11.68694
       O    -1.23729   -3.83607   11.52139
      H1    -0.92924   -4.38179   10.72457
       H    -1.00531   -0.56100    7.83605
       O    -1.34332   -1.21354    8.50978
      H1    -1.56410   -0.60260    9.22584
       H    -0.10362   -6.85409    3.76578
       O    -0.82313   -6.30823    4.04846
      H1    -0.43271   -6.06574    4.92647
       H    -0.65451   -6.21245    7.10353
       O    -1.40388   -6.76508    7.42183
      H1    -2.06338   -6.03815    7.52623
       H     4.73165   -3.09904    3.02458
       O     3.99046   -2.65719    3.47013
      H1     3.34331   -3.39443    3.47683
       H     1.80943   -8.72491    7.28750
       O     1.05267   -8.42550    6.78398
      H1     1.47292   -8.27353    5.93471
       H    -0.65750  -10.41739    7.84920
       O    -1.23963   -9.74837    7.46859
      H1    -0.55648   -9.12749    7.13239
       H    -2.55149   -1.37065    5.35526
       O    -1.81148   -1.98861    5.41239
      H1    -2.03701   -2.57680    4.70714
       H     2.74783   -6.36821    8.21600
       O     1.86251   -6.08869    7.92929
      H1     1.55061   -6.89438    7.43364
       H    -0.03365   -1.61896    1.08497
       O     0.86144   -1.90205    1.43243
      H1     0.70603   -1.83706    2.35818
       H    -2.16198   -3.55259    2.48188
       O    -2.23450   -3.89621    3.33560
      H1    -1.67660   -4.70872    3.39396
       H     0.06442   -2.30794    8.78447
       O     0.91219   -2.70991    9.05297
      H1     1.41458   -2.61155    8.20316
       H     0.55413   -5.71780    9.68688
       O    -0.32026   -6.03310    9.88968
      H1    -0.55087   -6.42605    9.03256
       H     1.86396   -0.97295    6.85343
       O     2.07500   -1.95600    6.74289
      H1     3.04486   -2.01842    6.72854
       H     2.28243   -4.31059    1.28675
       O     1.39569   -4.53792    0.94742
      H1     0.92188   -3.71698    0.84381
       H     3.40150   -6.14796    3.22184
       O     3.94230   -6.92808    3.00171
      H1     3.68953   -7.74183    3.45012
       H    -5.10341   -5.88316    7.84080
       O    -4.84715   -5.25335    7.15923
      H1    -5.73607   -4.87851    6.98076
       H     0.74905   -9.04326    3.80416
       O     1.14251   -8.22077    3.67567
      H1     1.31062   -8.13942    2.70226
       H    -3.31877   -4.11754    7.13281
       O    -2.36752   -4.01576    7.46795
      H1    -2.10535   -3.24917    6.94386
       H     1.80040   -4.75932    4.46850
       O     2.27211   -4.68547    3.63741
      H1     1.53936   -4.81861    3.09584
       H     0.88986   -7.73320    0.16153
       O     0.82254   -7.48299    1.13318
      H1     0.96866   -6.53934    1.08968
       H     3.38612   -3.61945    9.06564
       O     4.28806   -3.87447    8.85326
      H1     4.75534   -3.35348    9.52537
       H     1.84508   -5.34318   11.31939
       O     2.10303   -4.47184   10.97435
      H1     1.28000   -4.20101   10.57256
       H     2.16436   -8.52356    9.75298
       O     2.69409   -8.56654    8.94908
      H1     3.57153   -8.34061    9.21749

