90
frame 3 | Written by MDAnalysis XYZWriter (release 2.4.3)
       H    14.08955  -12.92769    4.43287
       O    13.40935  -12.67165    3.78926
      H1    12.70072  -13.30779    3.85709
       H     8.82281   -9.94754    6.41819
       O     8.38503   -9.52070    5.72478
      H1     8.54578  -10.08795    4.90526
       H    13.67968   -4.64549    3.46784
       O    13.68560   -5.04008    4.43957
      H1    14.50252   -5.60213    4.46121
       H    13.14782  -10.47478   -0.35559
       O    12.71345   -9.67596   -0.52701
      H1    12.01455   -9.98591   -1.19850
       H     7.37550   -6.38660    5.16606
       O     8.02235   -6.81955    5.73717
      H1     7.87966   -7.73781    5.64096
       H    13.57155  -12.43239    1.65199
       O    13.77856  -12.09745    0.75330
      H1    14.65511  -12.51406    0.57761
       H     7.18850   -4.74735    3.18581
       O     7.67538   -4.46564    2.43342
      H1     7.20394   -3.77385    1.98742
       H    10.74272   -4.57965    6.93874
       O    11.55909   -4.93947    7.24092
      H1    11.93377   -5.57168    6.59972
       H    13.47444   -9.25771    6.69956
       O    13.31657  -10.19474    6.84973
      H1    14.12447  -10.66815    6.94703
       H     5.66621   -9.47006    2.47266
       O     5.80619  -10.41483    2.38948
      H1     6.72398  -10.58542    2.16584
       H    14.67621   -9.49837    3.54932
       O    15.43457   -9.10838    3.01137
      H1    15.67832   -8.35602    3.54611
       H    12.95608  -11.08202    3.75386
       O    12.84559  -10.09152    3.91159
      H1    12.65998  -10.03453    4.86025
       H     8.02061   -9.06828    1.33505
       O     8.32486  -10.00665    1.23216
      H1     8.15533  -10.26058    0.30055
       H    16.94250   -6.54267    4.54087
       O    15.99070   -6.64182    4.77850
      H1    15.99796   -7.18458    5.54869
       H    10.62222   -4.88533    0.48570
       O     9.82880   -4.85750   -0.07890
      H1    10.21252   -4.91906   -1.01175
       H    10.10502   -8.09142    4.42978
       O    10.66709   -7.45086    3.99494
      H1    10.85411   -7.76488    3.08169
       H     7.35794   -4.97250    8.32047
       O     8.21025   -5.29027    8.03548
      H1     7.96770   -5.85746    7.34589
       H    11.84592   -1.79595    2.36807
       O    11.62063   -2.06438    1.46484
      H1    11.79533   -3.04813    1.60522
       H     9.92344  -10.17131    2.45808
       O    10.25029  -10.41109    3.33560
      H1    11.22183  -10.18622    3.36322
       H     8.23164   -7.26193   -1.00570
       O     8.60841   -7.03027   -1.87509
      H1     8.86640   -7.94032   -2.25808
       H    12.69420   -5.52437    1.67271
       O    12.09129   -4.78151    1.93729
      H1    11.70110   -5.00855    2.78673
       H     9.31141   -4.58227    3.26194
       O    10.08432   -4.68782    3.83357
      H1    10.18935   -5.70993    3.95898
       H    12.38802   -7.44279    6.46293
       O    13.21903   -7.38034    5.91544
      H1    12.86470   -7.00648    5.08958
       H    14.04845   -7.51957    1.91057
       O    13.86580   -6.83073    1.31264
      H1    14.49266   -6.85552    0.60285
       H    12.02435   -7.66893    1.27755
       O    11.15421   -8.14175    1.39567
      H1    11.23046   -8.88786    0.77035
       H    10.16329   -7.44302    7.40767
       O    10.98044   -7.73727    7.71827
      H1    11.23458   -7.11393    8.44070
       H     9.19709   -6.80412    0.81177
       O     8.33510   -6.91146    1.26135
      H1     8.05210   -5.99116    1.32625
       H     8.86234   -4.00012    6.46103
       O     9.37493   -3.34105    6.01548
      H1     9.75973   -3.78820    5.23309
       H     9.88055  -11.95327    2.51449
       O     9.73652  -12.89591    2.27996
      H1     9.26370  -12.99805    1.44701
       H    10.02411   -9.11231    7.88908
       O     9.53989   -9.94519    8.02013
      H1    10.16969  -10.70051    8.10104

