90
frame 1 | Written by MDAnalysis XYZWriter (release 2.4.3)
       H    -4.23573   -7.03637    4.65822
       O    -5.04886   -6.54937    4.33251
      H1    -5.16786   -5.84803    5.03162
       H    -6.52775  -13.01674    8.28301
       O    -5.95719  -13.63173    7.82993
      H1    -5.00463  -13.40758    8.03651
       H    -9.31404  -11.93948    8.58908
       O    -8.60186  -12.55695    8.33759
      H1    -8.79336  -12.66558    7.36894
       H    -4.07212   -3.72568   10.38083
       O    -4.90954   -3.67323    9.88813
      H1    -4.75032   -4.16170    9.04540
       H    -3.24311  -11.78144    6.55058
       O    -3.57135  -11.13512    5.91392
      H1    -2.97255  -10.39892    5.90478
       H    -7.99490   -7.81258   10.02674
       O    -7.39002   -7.30647   10.54648
      H1    -6.58063   -7.30779   10.02643
       H    -7.42901  -10.79891    3.25453
       O    -6.57163  -11.21628    3.02927
      H1    -6.41646  -11.55897    3.94415
       H    -6.47227  -13.05724   10.97168
       O    -6.93064  -13.86246   11.09310
      H1    -6.54417  -14.28511   10.32896
       H    -2.61797   -7.72115    5.96663
       O    -2.71630   -7.90130    5.04345
      H1    -2.13911   -7.23860    4.59539
       H    -7.02036   -8.58110   11.50572
       O    -6.70799   -9.38132   12.06565
      H1    -5.93445   -8.92434   12.41121
       H    -0.92155   -6.66467    6.73885
       O    -1.72202   -6.61326    7.30994
      H1    -2.17615   -5.78897    7.07946
       H    -6.66017   -8.29060    6.97324
       O    -7.36043   -7.63301    6.75610
      H1    -7.91295   -7.92419    7.47186
       H    -7.94044   -7.59714    4.87021
       O    -8.76036   -7.39422    4.34271
      H1    -9.31705   -6.95153    4.98224
       H    -4.75326   -9.49305    8.41016
       O    -5.74515   -9.57789    8.29690
      H1    -5.95047  -10.38349    8.78567
       H    -3.98768  -11.52627   12.23399
       O    -3.57483  -11.81452   11.44178
      H1    -3.24626  -10.97335   11.12078
       H    -2.81659  -10.24989    8.00611
       O    -3.06683   -9.92019    8.91842
      H1    -2.35302   -9.28075    9.06752
       H    -0.56317  -11.16305    7.30131
       O    -1.11439  -10.44570    6.95478
      H1    -0.47399   -9.74862    6.94607
       H    -2.47708  -13.06644    8.44483
       O    -3.13006  -13.02958    7.72699
      H1    -3.11450  -13.96075    7.42861
       H    -1.20950  -13.77662   10.34265
       O    -1.44798  -12.87102   10.00943
      H1    -2.19522  -12.67714   10.60362
       H    -0.22321   -5.72451    9.50151
       O    -1.00822   -6.16079    9.74526
      H1    -1.40285   -6.15248    8.79603
       H    -8.04129  -13.11357    5.51231
       O    -8.87927  -13.41527    5.89124
      H1    -9.07866  -14.19716    5.31008
       H    -9.85098   -9.18322    8.56600
       O    -9.31682   -8.41193    8.62714
      H1    -9.90045   -7.70589    8.29643
       H    -7.74469   -4.64023    7.81696
       O    -7.25564   -4.98477    7.00112
      H1    -7.44886   -5.97389    7.01879
       H    -3.55949   -8.60215   12.49699
       O    -4.07094   -9.29550   12.99722
      H1    -3.76411   -9.03273   13.93408
       H    -4.48836   -5.78329    8.06116
       O    -4.65010   -5.08546    7.42863
      H1    -5.63764   -5.04918    7.33324
       H    -5.20728  -11.94324    5.76064
       O    -5.98121  -12.41798    5.41812
      H1    -6.10426  -13.12134    6.12116
       H    -3.62337  -12.20179    4.14269
       O    -3.47087  -12.62479    3.29108
      H1    -4.24392  -13.24085    3.32698
       H    -3.93921   -6.87559   10.42332
       O    -4.60938   -6.49890    9.81308
      H1    -4.76933   -5.55571   10.03799
       H    -4.97412  -11.43611   10.54277
       O    -5.93701  -11.29733   10.20767
      H1    -6.15947  -10.55120   10.80081
       H    -2.05236   -7.29598   10.88718
       O    -2.62913   -7.59658   11.60260
      H1    -2.68123   -6.88006   12.24904

