90
frame 1 | Written by MDAnalysis XYZWriter (release 2.4.3)
       H     7.09585   -3.41320   -3.59645
       O     6.76422   -4.31320   -3.63755
      H1     6.07575   -4.24804   -4.36085
       H     6.10592    0.96299   -3.53010
       O     5.23297    1.36044   -3.45497
      H1     4.81377    0.47200   -3.44671
       H     4.93992    0.37281   -6.01830
       O     5.18313    0.24341   -6.97897
      H1     5.93264   -0.36897   -6.83973
       H     5.90031    3.39073   -4.60907
       O     6.20236    4.31518   -4.59624
      H1     5.64652    4.66802   -3.86373
       H     9.32363   -4.42913   -5.69678
       O     9.26631   -5.10378   -5.02721
      H1     8.54183   -4.75503   -4.47442
       H     9.44450   -2.06276  -11.46596
       O     9.48344   -2.41277  -10.56579
      H1     8.70102   -3.08394  -10.61954
       H     4.54660   -2.93950   -9.23838
       O     4.07158   -3.51773   -8.60657
      H1     3.75947   -2.85823   -7.97112
       H     4.66493   -3.82002   -1.95547
       O     3.83923   -4.27748   -1.75581
      H1     4.11114   -5.21791   -1.65032
       H     7.11223   -5.67401   -7.36790
       O     7.23265   -4.67751   -7.38003
      H1     8.23245   -4.66456   -7.53531
       H     7.57874   -1.76910   -5.28990
       O     7.39553   -1.88186   -6.23296
      H1     6.87008   -2.76062   -6.14776
       H     4.38790   -4.58436   -5.56253
       O     5.09283   -3.99206   -5.67148
      H1     5.62166   -4.31598   -6.40776
       H     1.95646   -2.81429   -6.52574
       O     2.58650   -2.13404   -6.72372
      H1     3.32719   -2.49054   -6.22561
       H     9.02680   -0.63300  -10.20026
       O     9.04042    0.32403  -10.03366
      H1     8.26402    0.51863  -10.56004
       H     6.81285    1.35819   -0.96346
       O     5.96255    1.89224   -0.92854
      H1     5.68414    1.72390   -1.80332
       H     3.81099   -1.24941   -2.46142
       O     4.16840   -1.15019   -3.35312
      H1     3.28067   -1.10627   -3.79709
       H    10.07154    2.36503   -5.43407
       O     9.23964    2.25489   -5.91333
      H1     9.44173    1.55015   -6.50948
       H    10.02856   -4.47241   -1.98786
       O     9.93300   -3.51023   -2.15303
      H1    10.69650   -3.27649   -2.69938
       H    10.50524   -4.58076   -8.88593
       O    10.91501   -5.39797   -9.30019
      H1    10.83608   -5.19480  -10.25160
       H    11.17164   -5.70893   -4.78118
       O    12.02293   -6.08786   -5.18266
      H1    12.55343   -6.07178   -4.38647
       H     4.72393    2.28914   -7.27941
       O     4.78761    3.23395   -7.38755
      H1     4.50207    3.52648   -6.50961
       H     7.90863   -1.53869   -0.20395
       O     7.84351   -2.49034   -0.09903
      H1     8.76855   -2.74474   -0.32660
       H     8.37331   -0.91088   -3.40157
       O     8.24728   -1.83273   -3.51821
      H1     8.84430   -2.23560   -2.80473
       H    13.23164   -2.18164   -2.94425
       O    12.30230   -2.00513   -3.17347
      H1    12.31387   -1.14103   -3.62561
       H    13.38917   -2.31918   -6.84426
       O    12.58941   -2.10408   -7.35231
      H1    12.64575   -2.77309   -8.08652
       H    10.96706   -3.26799   -6.97402
       O    10.04232   -3.45595   -7.34203
      H1     9.70630   -2.55106   -7.56199
       H     7.18357   -5.11341  -10.45723
       O     6.94109   -4.21228  -10.11330
      H1     6.81409   -4.41169   -9.14316
       H     2.61481   -0.28085   -9.01155
       O     3.25545    0.45211   -8.90291
      H1     3.85581   -0.01725   -8.25718
       H     8.29009    1.94587   -2.81249
       O     8.20967    1.29520   -3.52377
      H1     8.42879    1.81269   -4.34731
       H     7.98784    0.27816    0.40420
       O     8.27516    0.46415   -0.54077
      H1     9.15005    0.93135   -0.37264
       H     9.18251   -0.32033   -8.37302
       O     9.40577   -0.51231   -7.47005
      H1     8.57229   -0.90158   -7.15443

