90
frame 2 | Written by MDAnalysis XYZWriter (release 2.4.3)
       H     8.15650    9.93685    3.07987
       O     7.87090   10.30209    3.94126
      H1     8.65425   10.69022    4.37800
       H    10.06797    9.13756    7.63561
       O    10.59448    8.50668    8.20555
      H1    10.15095    8.53588    9.07682
       H     5.09312    4.64825   10.02388
       O     4.94451    5.28265    9.24519
      H1     4.69234    4.61975    8.60121
       H     4.05553    8.32028    9.45328
       O     3.92833    8.61940   10.36993
      H1     4.01862    7.88956   10.97266
       H     4.50793    9.67634    2.67644
       O     4.35157   10.28618    1.89863
      H1     3.34767   10.34045    1.93814
       H     8.32684   14.03970    5.62817
       O     9.01803   14.45094    5.10990
      H1     9.43766   15.11115    5.70107
       H     7.06126    9.68613    9.65713
       O     6.41644   10.35934    9.72178
      H1     5.58931    9.75809    9.89230
       H    10.08019   12.79091    4.62085
       O    10.36953   11.89414    4.74560
      H1    11.05043   11.77709    4.09751
       H     7.69881    7.79909    3.77786
       O     8.25646    6.97904    3.85622
      H1     7.71248    6.30992    3.31059
       H     3.17607   12.20607    7.87222
       O     2.54492   11.49898    8.01996
      H1     2.82490   10.93766    7.24565
       H     6.16112   16.24496    8.36435
       O     6.26894   15.59933    7.69411
      H1     5.48441   15.08461    7.74074
       H     5.51860   12.90663    7.19356
       O     4.59616   13.18732    7.26746
      H1     4.31202   13.57079    6.40363
       H     9.51851   12.28518    9.07546
       O     8.60614   12.37754    8.65525
      H1     8.04638   12.29370    9.47445
       H     3.69939    6.15004    4.87704
       O     3.04001    6.56827    4.31164
      H1     2.32268    6.72230    4.98296
       H     7.43409   11.57981    6.36234
       O     6.93479   12.33811    6.10355
      H1     6.68202   12.09373    5.23285
       H     6.10415   10.59105    6.50441
       O     5.62567    9.80204    6.48931
      H1     6.26746    9.08742    6.30119
       H     4.34928    8.76221    4.94914
       O     4.43482    8.71114    3.98805
      H1     3.97071    7.88700    3.77336
       H     5.29276    8.05485    7.65636
       O     4.38210    7.79460    7.93168
      H1     4.51755    6.94589    8.39263
       H     8.11077   11.46710   11.50861
       O     7.53979   12.18150   11.07564
      H1     6.86818   11.64102   10.60770
       H     4.64582   13.88168    8.92556
       O     4.29162   14.42466    9.69296
      H1     3.35678   14.18934    9.71656
       H     3.63461   15.41224    4.64672
       O     4.34709   14.75341    4.65104
      H1     5.13499   15.31566    4.78041
       H     7.71034    7.47930    9.77870
       O     8.17710    8.22580   10.20717
      H1     8.03915    8.02356   11.15456
       H     2.60745    8.12633    7.09281
       O     1.75724    8.12788    6.54324
      H1     1.85265    8.92512    6.06197
       H     7.47057    7.13671    5.66761
       O     6.65209    7.32034    6.15643
      H1     5.98497    6.69120    5.83649
       H     4.89485    4.04685    6.28385
       O     5.40078    4.60018    5.65650
      H1     6.31019    4.41895    5.80799
       H     7.11985    6.65734    7.60607
       O     7.38244    6.33932    8.50207
      H1     6.52900    5.90159    8.72026
       H     1.81802   10.90160    4.41324
       O     1.59817   10.56236    5.28756
      H1     0.82583   11.04918    5.51898
       H     9.83942   10.94960    6.54532
       O     9.19268   10.36100    6.90125
      H1     8.71592   10.93507    7.55234
       H     2.29168    9.20380    9.98137
       O     1.44717    9.71349    9.66133
      H1     1.89535   10.21070    8.90555
       H     5.27999   11.76523    3.26587
       O     6.14536   12.20478    3.50743
      H1     6.72279   11.43582    3.75070

