90
frame 2 | Written by MDAnalysis XYZWriter (release 2.4.3)
       H     5.37823   11.69505   15.25033
       O     6.19902   11.27548   14.95368
      H1     6.91828   11.93966   15.14700
       H     3.10238   11.98123   18.95959
       O     2.29679   12.42924   19.38764
      H1     2.44683   13.39133   19.28226
       H     4.81439    8.78905   14.43295
       O     4.28581    8.20918   14.98328
      H1     4.39990    7.29992   14.59130
       H    10.38038   14.50141   13.11683
       O    10.12015   13.91535   12.33224
      H1     9.20924   14.18718   12.32776
       H     9.88703   11.54616   12.01687
       O     9.49676   10.68609   12.12288
      H1    10.16606   10.04584   11.81336
       H     7.73631   10.37930   18.58553
       O     7.46453   11.30053   18.86061
      H1     7.12646   11.13982   19.76691
       H     2.88450    9.85646   12.42218
       O     3.01993   10.77843   12.62049
      H1     2.70311   10.73085   13.53171
       H     4.39474   11.67440   17.49298
       O     4.71986   11.44987   18.34746
      H1     5.71229   11.57443   18.28287
       H     3.23583   12.85497   13.21257
       O     3.52711   13.71784   12.94553
      H1     4.29021   13.47842   12.42395
       H     9.24365   11.69387   14.14918
       O     9.00668   12.29298   14.89123
      H1     9.17106   13.21137   14.59448
       H    11.39314   15.11150   15.09119
       O    11.64253   15.10661   14.09298
      H1    11.47308   15.99410   13.79407
       H     6.84452    7.99356   12.92795
       O     7.26801    7.22428   12.56403
      H1     7.93096    7.08272   13.23575
       H     7.73650   15.38903   14.50472
       O     8.42811   15.09007   15.10228
      H1     9.13672   15.61770   14.76388
       H     9.96836   11.65814   15.97600
       O    10.43886   11.23867   16.78567
      H1     9.93800   10.36266   16.82504
       H     2.04566    8.17536   17.50280
       O     2.18105    8.85102   16.76063
      H1     3.00804    8.53036   16.37407
       H    13.29209   11.43922   15.92652
       O    12.81556   10.61752   15.69565
      H1    11.85488   10.75786   15.97996
       H     4.13853   15.41548   19.72018
       O     3.88610   14.63040   19.20771
      H1     4.52119   14.59195   18.44555
       H    10.90232   15.75323   17.26132
       O    10.93338   14.88030   16.77592
      H1    10.06895   14.50024   17.17185
       H     8.36380    8.55772   14.13771
       O     8.00794    8.88415   15.00200
      H1     7.65223    9.77628   14.81211
       H     5.44924   14.29075   16.08010
       O     5.35586   14.17407   17.07906
      H1     6.30695   14.42241   17.25930
       H     8.11077   11.46710   11.50861
       O     7.53979   12.18150   11.07564
      H1     6.86818   11.64102   10.60770
       H     2.57113   11.46276   15.99662
       O     3.32736   11.93543   15.67349
      H1     3.29770   12.78250   16.12630
       H     7.48656   13.87305   11.47825
       O     7.59890   14.61881   12.05896
      H1     8.15915   15.22318   11.48756
       H     5.22517   15.97912   10.61910
       O     5.82728   16.48882   11.13252
      H1     6.34913   15.87197   11.68707
       H     5.10111   10.13730   12.34909
       O     5.98106    9.85650   12.68626
      H1     6.11431   10.58668   13.27671
       H     4.83150   14.53551   13.85550
       O     5.28414   14.92816   14.60157
      H1     4.83697   15.74757   14.78786
       H     9.13811   11.75863   19.48772
       O    10.00117   12.12891   19.70891
      H1    10.60295   11.92139   18.98718
       H     7.52294    7.32865   16.72477
       O     8.11012    6.56554   16.73204
      H1     7.45820    5.86244   16.94948
       H     8.31458   14.63726   16.89499
       O     8.51686   14.22207   17.80386
      H1     8.47895   13.27335   17.63862
       H    11.30169    8.45046   17.57164
       O    10.35532    8.51951   17.90828
      H1     9.89277    7.80503   17.42009

