90
frame 1 | Written by MDAnalysis XYZWriter (release 2.4.3)
       H   -15.47329  -10.45788   12.55486
       O   -15.20254  -10.15777   13.43284
      H1   -15.03429   -9.23891   13.21879
       H   -19.11548   -6.11750   16.19085
       O   -19.73603   -6.52266   16.82256
      H1   -19.60831   -7.45169   16.63308
       H   -14.07904  -12.39371   16.53649
       O   -13.72941  -12.24672   15.70284
      H1   -13.93140  -13.09958   15.25237
       H   -18.69618   -1.94516   14.46483
       O   -18.97947   -2.15358   13.58545
      H1   -18.91392   -3.11047   13.67260
       H   -16.77930  -11.79272   16.21301
       O   -16.85431  -11.49272   15.29365
      H1   -15.97250  -11.44207   15.00632
       H   -19.31528   -6.36482   11.91375
       O   -18.36922   -6.39169   12.05026
      H1   -18.25496   -7.09563   12.67840
       H   -14.44790   -5.99214   11.14805
       O   -14.35238   -6.70752   10.52129
      H1   -14.02292   -6.31495    9.68612
       H   -18.00076    0.47062   17.41214
       O   -18.64809   -0.06395   17.86506
      H1   -18.37845   -0.89645   17.50439
       H   -18.36901  -15.35072   15.51758
       O   -18.86551  -14.62953   15.22232
      H1   -19.73837  -14.95976   15.36482
       H   -18.44234  -10.64421   12.18958
       O   -17.84144  -11.04742   11.58309
      H1   -17.81179  -11.98633   11.85377
       H   -18.30120   -5.22310   13.73528
       O   -18.41645   -4.71102   14.51931
      H1   -17.84761   -3.94747   14.58197
       H   -14.28525   -5.65794   17.94290
       O   -13.38727   -5.69041   17.52867
      H1   -13.00342   -6.26727   18.20206
       H   -13.31419   -7.45639   12.22145
       O   -13.79971   -7.66588   13.06581
      H1   -13.30630   -7.18926   13.75319
       H   -15.10402   -8.88293   15.91968
       O   -14.21385   -8.70484   16.37371
      H1   -13.64645   -9.23049   15.73368
       H   -13.35290   -8.33908   17.95553
       O   -12.71148   -8.27745   18.68428
      H1   -11.93819   -8.63107   18.29159
       H   -14.83960   -4.05842   13.01666
       O   -14.68156   -4.27405   12.10019
      H1   -13.80865   -3.82891   11.88974
       H   -11.84662   -7.09379   15.30412
       O   -12.50646   -6.38506   15.02409
      H1   -13.19359   -6.31344   15.73627
       H   -13.26473   -9.80527   13.94360
       O   -12.46922  -10.30190   14.16441
      H1   -12.82011  -11.07254   14.67133
       H   -18.38631  -13.22857   16.77978
       O   -17.99808  -12.75198   17.51470
      H1   -18.70636  -12.14744   17.69363
       H   -17.86286  -10.26393   14.44230
       O   -18.46703   -9.61027   14.22971
      H1   -17.83393   -8.86383   14.16513
       H   -17.00982   -3.74777   19.70296
       O   -17.40639   -3.86440   18.83150
      H1   -18.27868   -4.13117   19.09650
       H   -16.28224   -4.49197   10.93318
       O   -16.97199   -4.65587   10.27426
      H1   -17.54297   -5.24497   10.87260
       H   -14.20569   -2.39800   15.04117
       O   -14.39738   -3.31903   14.91173
      H1   -13.70043   -3.71551   15.48681
       H   -18.78240  -15.16254   19.30553
       O   -17.89895  -15.14346   19.77763
      H1   -17.45222  -14.69428   18.99782
       H   -15.86461   -6.68676   17.91105
       O   -16.15846   -5.99779   17.26483
      H1   -16.62402   -5.38496   17.85974
       H   -15.33875   -2.48006   17.00475
       O   -14.82225   -2.01861   17.69900
      H1   -14.36343   -1.32231   17.16827
       H   -17.46483  -14.20778   13.25643
       O   -17.15588  -13.30962   13.10952
      H1   -17.28726  -12.74354   13.94435
       H   -16.61272   -6.55556   15.18079
       O   -16.63812   -7.21916   14.44711
      H1   -15.77506   -7.03058   14.03285
       H   -19.29505   -2.44580   16.58706
       O   -18.31224   -2.45032   16.51326
      H1   -18.11784   -2.97574   17.34215
       H   -18.61280   -7.68256    9.44718
       O   -19.54434   -7.80124    9.33978
      H1   -19.60080   -7.92784    8.40500

