90
frame 2 | Written by MDAnalysis XYZWriter (release 2.4.3)
       H     0.79915   15.02296   16.77902
       O     1.64280   14.87403   17.23335
      H1     1.40198   14.93113   18.18541
       H    -8.41837   15.70436   18.21764
       O    -9.16914   16.22305   18.52866
      H1    -9.85123   16.15046   17.89727
       H    -8.43144   14.73755   14.33219
       O    -9.15825   15.39404   14.50593
      H1    -9.72690   15.22801   13.75681
       H    -3.79762   11.16924   12.58933
       O    -2.98790   11.59878   12.71505
      H1    -2.54352   11.62421   11.85357
       H    -3.34156    8.01381   18.22009
       O    -3.03838    7.97860   19.12471
      H1    -3.08819    7.02679   19.39627
       H     0.29989   19.97418   19.37000
       O     0.25802   19.25637   18.70975
      H1     1.10277   18.70253   18.72979
       H    -5.79178   15.47057   12.08307
       O    -5.27545   14.61542   12.22002
      H1    -4.70756   14.90871   12.92861
       H    -1.27815   14.74892   15.83548
       O    -0.64253   15.32474   15.38111
      H1    -0.72604   14.99952   14.48886
       H    -4.03720   11.79515   18.48788
       O    -3.24878   11.30218   18.71551
      H1    -3.18491   10.68829   17.94926
       H    -6.14649   10.90055   14.85861
       O    -5.95679   10.15342   15.44632
      H1    -6.32378    9.47294   14.88330
       H    -8.05833   10.34875   18.01929
       O    -8.15802   10.08489   17.11803
      H1    -7.29633   10.38861   16.71346
       H    -8.69353   18.99548   17.76856
       O    -8.39494   18.49782   16.98234
      H1    -8.63024   17.63197   17.38519
       H    -6.02903   16.85864   18.21530
       O    -6.25572   16.40908   17.36565
      H1    -5.88796   17.06383   16.80053
       H    -6.44219   13.90350   13.19093
       O    -7.21559   13.59638   13.74855
      H1    -7.84791   13.29828   13.08941
       H    -2.53540   13.90223   17.84379
       O    -1.72019   13.82380   17.35148
      H1    -1.74937   12.85179   17.42985
       H    -3.89992   15.30688   14.98357
       O    -3.49674   15.91164   14.38981
      H1    -3.39457   16.71616   14.93516
       H   -11.72681   15.53437   16.64715
       O   -11.00153   16.14680   16.48569
      H1   -10.42963   15.69596   15.82785
       H    -4.98536   13.78354   16.19107
       O    -4.88437   13.41371   15.26024
      H1    -5.76887   13.38047   14.91903
       H    -5.17384   15.17496   17.76232
       O    -4.43339   14.51776   17.83478
      H1    -4.84341   14.08836   18.62496
       H    -1.90013   15.16309   11.52178
       O    -1.44257   15.27962   12.41392
      H1    -2.14801   15.31625   13.03638
       H     0.28459   10.41624   17.82216
       O     0.08462    9.87304   18.61171
      H1    -0.08358    9.07796   18.17243
       H    -7.20498   18.68327   15.89429
       O    -6.75095   18.79652   15.02468
      H1    -5.86100   19.00397   15.36051
       H    -7.43601   17.76598   13.74960
       O    -7.71808   17.21760   13.00358
      H1    -8.19990   16.48516   13.47862
       H     1.27759   12.18514   18.08297
       O     0.99131   11.99603   17.15989
      H1     0.71845   12.91801   16.92347
       H    -9.91942    9.57506   16.64409
       O   -10.63489    9.11629   16.21442
      H1   -11.17103    8.78885   16.94127
       H    -2.38648   11.24771   14.59701
       O    -2.14322   11.09750   15.51033
      H1    -1.16958   10.73914   15.41616
       H    -3.37276    9.36141   16.04377
       O    -3.78162    8.70626   16.61831
      H1    -4.71829    8.69371   16.44244
       H    -0.76097   17.78000   18.96000
       O    -1.62791   17.40092   18.66825
      H1    -1.26677   16.69429   18.10230
       H    -3.00202   17.38268   17.13933
       O    -3.42374   17.76937   16.34136
      H1    -3.02025   18.68361   16.32448
       H    -9.77884   14.36993   19.04353
       O   -10.23375   13.56997   19.38587
      H1   -11.22018   13.88091   19.29828

