90
frame 2 | Written by MDAnalysis XYZWriter (release 2.4.3)
       H    -1.09646   14.30506   -2.09480
       O    -1.71663   14.04325   -1.40053
      H1    -1.60855   14.81134   -0.81613
       H    -3.63406    9.91850   -5.49230
       O    -4.12002    9.10464   -5.76461
      H1    -3.66551    8.76770   -6.53864
       H    -4.85701   16.64795   -4.87687
       O    -4.02523   16.59832   -4.42712
      H1    -4.40434   15.98035   -3.76778
       H    -5.76777    7.60594   -2.17054
       O    -6.63644    7.65948   -1.71104
      H1    -6.35943    7.79608   -0.77576
       H    -0.56547   12.69127   -1.03627
       O    -0.02206   11.96707   -0.77267
      H1     0.43456   11.77457   -1.58144
       H    -7.20749   16.84185   -5.79256
       O    -6.71724   16.42870   -5.07474
      H1    -7.11677   15.52983   -4.96199
       H    -4.01214    7.90803    3.12428
       O    -4.33248    8.66632    2.62292
      H1    -3.85698    9.36957    3.08304
       H    -3.60738   12.64077    0.37488
       O    -4.49323   13.06796    0.07406
      H1    -5.07016   12.52914    0.60413
       H    -7.91830   16.02846   -1.76833
       O    -7.09856   16.40050   -2.19411
      H1    -7.32161   16.71714   -3.09663
       H    -7.35681    4.72664   -0.66665
       O    -6.46993    5.13239   -0.76613
      H1    -6.77636    5.97120   -1.25064
       H   -12.06786   13.39845   -3.21590
       O   -11.17084   13.50265   -2.84209
      H1   -11.07129   12.60626   -2.43796
       H    -7.47314   13.91207    2.85738
       O    -7.78073   12.97446    2.79591
      H1    -7.21936   12.59777    3.47099
       H    -5.75220    8.57016    1.26120
       O    -6.47011    8.80538    0.66981
      H1    -7.17448    8.20809    0.88065
       H    -9.62456   11.74450   -1.50058
       O   -10.45636   11.23206   -1.43263
      H1   -10.54793   10.72977   -2.22340
       H    -5.86731   15.09126   -2.48405
       O    -5.16152   14.48445   -2.84720
      H1    -4.89254   14.08231   -1.96864
       H    -0.51257   10.07855   -0.95499
       O    -0.92955    9.15311   -0.87251
      H1    -0.38589    8.82381   -1.65016
       H    -7.07914   10.84264    0.41371
       O    -7.17048   11.83877    0.36098
      H1    -6.98428   11.93553    1.30324
       H    -1.90272   13.04999   -5.34166
       O    -1.60545   12.50310   -4.63850
      H1    -2.23146   12.60307   -3.94473
       H    -8.51348   11.31579   -3.81818
       O    -8.35542   11.98915   -3.16045
      H1    -7.42990   11.83201   -3.00729
       H    -8.94722   14.79429   -4.88214
       O    -8.18120   14.25202   -5.19907
      H1    -8.11031   13.43662   -4.62679
       H    -4.81320    7.88437   -4.19809
       O    -4.43371    7.52210   -3.38275
      H1    -4.01558    6.78357   -3.82070
       H    -3.28445    8.85793   -3.12378
       O    -2.88518    9.72013   -3.00380
      H1    -2.29084    9.57939   -2.24747
       H    -5.79346   11.24868   -1.68445
       O    -5.83049   10.92523   -2.61783
      H1    -4.89589   10.63546   -2.77610
       H    -8.50854    9.23514   -5.10490
       O    -9.16189    9.67836   -4.53929
      H1    -9.00549    9.27513   -3.66821
       H    -8.27048    8.33647   -1.94389
       O    -9.25837    8.49639   -2.06966
      H1    -9.52033    8.99754   -1.28968
       H    -5.58937   11.93087   -4.87171
       O    -5.34823   12.78191   -5.23765
      H1    -5.61482   13.47547   -4.63433
       H    -2.63099   11.56826    1.94764
       O    -2.16026   11.94864    1.14155
      H1    -1.32862   12.32430    1.49739
       H    -4.73655   16.07655    0.66929
       O    -3.86923   15.67666    0.46915
      H1    -4.24976   14.85727    0.12946
       H    -9.30955   15.00669   -0.15282
       O    -8.37255   15.24115   -0.16230
      H1    -7.82639   14.57525    0.19742
       H    -5.71270   10.04428   -6.96210
       O    -6.58364   10.11681   -7.28948
      H1    -6.95462    9.32858   -6.85513

