90
frame 1 | Written by MDAnalysis XYZWriter (release 2.4.3)
       H    14.21728   -0.42204  -19.67678
       O    14.22425    0.08552  -18.83288
      H1    15.00958   -0.11957  -18.28572
       H     9.82167   -2.37052  -13.61783
       O     8.91788   -2.27430  -13.32636
      H1     8.46268   -1.78426  -14.04222
       H    11.90977   -1.39514  -13.73122
       O    11.52299   -2.25948  -13.67376
      H1    11.88426   -2.65415  -14.48808
       H    14.45293   -1.77101  -11.11344
       O    14.69739   -0.90348  -10.81800
      H1    14.35815   -0.82773   -9.88851
       H     9.44450   -2.06276  -11.46596
       O     9.48344   -2.41277  -10.56579
      H1     8.70102   -3.08394  -10.61954
       H    16.63153   -0.84051  -10.66548
       O    17.49885   -0.65567  -11.03078
      H1    18.11412   -0.84119  -10.30063
       H     7.55079    0.05332  -15.03598
       O     8.30695   -0.08849  -15.62256
      H1     9.03801    0.40884  -15.16295
       H    13.87456   -3.75095  -10.73972
       O    14.03233   -3.35518  -11.61052
      H1    13.10985   -3.18122  -11.91517
       H    13.60180    4.60557  -17.86146
       O    13.21319    4.12794  -17.14038
      H1    12.97257    3.26884  -17.51213
       H    17.78151    2.04314  -11.52799
       O    16.89369    2.26162  -11.10861
      H1    17.11230    2.68002  -10.28187
       H    12.70037   -1.04816  -18.19246
       O    12.34470   -1.81963  -17.73059
      H1    11.42821   -1.45755  -17.47717
       H    10.19796    0.98375  -10.94111
       O    10.67138    1.60922  -11.49841
      H1    10.90230    2.32599  -10.85433
       H    14.75848    4.88933  -13.96236
       O    14.38645    5.80184  -13.98967
      H1    13.41332    5.74081  -14.14269
       H    11.42600    5.86283  -14.89977
       O    11.67042    5.89187  -13.97842
      H1    11.35783    5.05448  -13.59871
       H    17.10948   -2.29118  -12.00233
       O    17.07350   -2.99902  -12.65951
      H1    16.10882   -3.06553  -12.71797
       H    12.73750   -3.52313  -16.82386
       O    12.65859   -4.43867  -16.46124
      H1    13.14117   -4.92379  -17.17294
       H    12.41945    1.36370  -11.70086
       O    13.29616    1.31282  -12.06632
      H1    13.73543    0.59955  -11.56971
       H    15.44384    2.38005  -17.11996
       O    15.92939    1.64582  -16.85359
      H1    15.53215    1.26218  -16.04504
       H    18.01392   -0.58927  -18.33667
       O    17.07829   -0.41155  -18.34828
      H1    16.94228    0.30572  -17.75045
       H    12.63991    1.20256  -18.24922
       O    11.96561    1.80657  -17.93795
      H1    12.07995    1.52884  -17.00112
       H     9.60020    4.40794  -12.17633
       O     9.98176    3.86130  -12.90723
      H1    10.23213    2.97713  -12.52462
       H    10.84307    1.11256  -14.55405
       O    10.49189    1.67448  -15.26219
      H1    10.34140    2.51747  -14.78176
       H    13.25916    0.59422  -13.68839
       O    12.82480    0.03253  -14.32023
      H1    13.59196   -0.29656  -14.88480
       H    15.60858   -0.63292  -14.86150
       O    15.02548   -0.80764  -15.60513
      H1    15.55541   -1.41089  -16.16498
       H    17.73440    2.38727  -15.59482
       O    17.86785    3.29366  -15.23456
      H1    17.57847    3.84274  -15.96480
       H    10.19193    4.82910   -9.72773
       O    10.75983    4.13133  -10.12298
      H1    11.44481    4.69899  -10.49930
       H    11.99571    3.64972   -8.66685
       O    12.82473    3.19588   -8.42307
      H1    12.88606    2.38587   -8.97957
       H    15.26254    0.95967  -12.64895
       O    15.83692    0.37372  -13.22330
      H1    16.51784    0.17347  -12.53147
       H    16.78428    3.21550  -13.86626
       O    16.00663    3.52176  -13.45759
      H1    16.15379    3.32930  -12.52542
       H     9.19810   -1.03026  -16.77752
       O     9.52662   -1.71696  -17.42696
      H1     9.06779   -2.55996  -17.26906

