90
frame 2 | Written by MDAnalysis XYZWriter (release 2.4.3)
       H    16.07041  -18.75345   19.65017
       O    16.31726  -19.28350   18.90274
      H1    17.25543  -19.20044   19.10402
       H    12.32715  -16.24041   16.04121
       O    11.96318  -16.12005   16.95195
      H1    11.20229  -15.64843   16.75450
       H    18.87832  -14.70839   11.70177
       O    18.76744  -13.78120   11.48395
      H1    19.00308  -13.37237   12.34681
       H    15.98811  -17.81190   14.21231
       O    15.10136  -18.18637   14.35230
      H1    14.68400  -17.47208   14.83025
       H    15.16242  -13.22804   12.74545
       O    15.37769  -14.04967   12.23650
      H1    15.49305  -13.62637   11.35491
       H    17.70778  -13.32479   17.72687
       O    17.95024  -13.78169   18.51915
      H1    18.34352  -13.17014   19.08230
       H    19.12915  -19.08374   15.48285
       O    19.63702  -18.72039   14.71503
      H1    20.05566  -19.53510   14.37618
       H    14.36551  -11.42157   13.38865
       O    15.00545  -11.99642   13.75025
      H1    14.54581  -12.40007   14.63624
       H    14.33832  -16.17356   17.01837
       O    14.94327  -16.47237   16.33840
      H1    15.29142  -15.65422   15.90730
       H    10.65498  -15.40719   11.21992
       O    11.25476  -15.59834   12.04187
      H1    12.13739  -15.45442   11.65179
       H    12.84806  -13.36792   15.32088
       O    13.73695  -13.25720   15.69218
      H1    13.56049  -13.21403   16.61312
       H    10.68331  -13.53119   14.36008
       O    11.18674  -14.20452   14.76555
      H1    11.31030  -14.78621   13.99630
       H    18.78636  -11.02155   13.53635
       O    19.11321  -11.94213   13.66634
      H1    20.06568  -11.79266   13.44122
       H    18.82911  -12.00003   10.15952
       O    19.33037  -11.42815    9.55022
      H1    19.75242  -10.72903   10.11260
       H    13.19470  -14.34180   10.21803
       O    13.44719  -15.18404   10.57965
      H1    14.18679  -14.89392   11.17208
       H    16.83954  -18.31594   17.20825
       O    17.49378  -17.85699   16.65965
      H1    17.15632  -16.95123   16.64863
       H    16.11937  -14.57502   13.65726
       O    16.52681  -15.10516   14.43027
      H1    17.06051  -14.39736   14.82441
       H    15.56562   -9.30624   14.79477
       O    16.21335  -10.00926   14.83832
      H1    15.78332  -10.71981   14.34186
       H    14.33418  -15.65194    7.82839
       O    14.68784  -16.35781    8.43827
      H1    14.23210  -16.15038    9.27377
       H    18.20263  -17.03024   11.95697
       O    19.06069  -16.61319   11.66651
      H1    19.46812  -17.18311   10.98131
       H    16.63560  -11.11059   10.71572
       O    16.89161  -10.20739   10.98006
      H1    16.17710  -10.07519   11.62185
       H    18.34083  -12.67946   15.49620
       O    17.65608  -12.34805   16.15161
      H1    17.45092  -11.48072   15.75316
       H    14.50288  -10.69001   10.63450
       O    14.16104  -10.32984   11.46163
      H1    13.54118   -9.64428   11.22558
       H    19.24400  -18.16048   19.90714
       O    19.08688  -18.66567   19.08873
      H1    18.80800  -17.97901   18.45415
       H    16.52873  -13.17120    9.22413
       O    16.45677  -12.94967   10.14417
      H1    17.26213  -13.43497   10.41869
       H    17.28916  -16.64762   14.04828
       O    17.48372  -17.45631   13.47788
      H1    18.41762  -17.70047   13.69820
       H    15.76097  -14.55363   20.02999
       O    15.33961  -13.80441   19.57951
      H1    16.04834  -13.63665   18.93576
       H    12.58038  -14.67189   18.01436
       O    12.78789  -13.77277   18.24267
      H1    13.45214  -13.88291   18.95386
       H    12.48277  -19.92537   12.23567
       O    13.28466  -19.34445   12.14140
      H1    13.41975  -19.03691   13.06991
       H    11.94105  -16.84637   13.27722
       O    12.23045  -17.01509   14.18446
      H1    12.03545  -17.94574   14.31766

