90
frame 2 | Written by MDAnalysis XYZWriter (release 2.4.3)
       H    15.06220    4.96091    3.68724
       O    14.61563    5.49817    4.35715
      H1    13.96369    4.90500    4.73552
       H    16.94532   12.89255    5.06842
       O    17.14651   13.68665    4.55603
      H1    17.49059   14.32478    5.21991
       H    14.22059   11.22037    5.69331
       O    14.93480   11.77291    5.91583
      H1    14.71459   12.63279    5.44514
       H    18.37212   11.41415    2.69878
       O    17.44036   11.10918    2.61852
      H1    17.42196   10.17562    3.05796
       H    16.60139    9.84861    7.34894
       O    16.41002    9.24024    6.61536
      H1    16.40968    8.39762    7.04326
       H    16.26332   10.62432    0.05778
       O    17.21141   10.47361    0.07482
      H1    17.40463   10.79196    0.98075
       H    16.92884   13.70103    1.46873
       O    17.63043   14.17321    1.94408
      H1    17.50717   13.92305    2.86890
       H    16.97583    8.85575   -0.63323
       O    16.57754    7.94020   -0.81306
      H1    16.74545    7.55061    0.07283
       H    17.16759    7.25701    2.75964
       O    17.46251    7.00064    1.83381
      H1    17.20440    6.04841    1.92357
       H    19.28506   14.22114    6.39937
       O    18.79450   15.05353    6.60201
      H1    19.23922   15.80187    6.26422
       H    13.98636   12.42447    1.99763
       O    14.89753   12.34067    1.63869
      H1    15.38459   11.87665    2.37257
       H    18.77839    7.11376    5.00662
       O    19.50395    6.53241    5.30660
      H1    19.03132    5.68419    5.18145
       H    14.52186   11.44676   -0.19440
       O    14.43042   10.80564   -0.98293
      H1    13.51864   10.59084   -0.96868
       H    15.92391    4.10793    1.51685
       O    16.35328    4.55196    2.29406
      H1    17.04158    3.92751    2.43575
       H    14.13244    6.63737    2.20096
       O    13.62694    6.73069    1.40658
      H1    13.41881    7.70413    1.49920
       H    13.13963    8.47016    5.73779
       O    13.65586    9.24104    5.84501
      H1    14.54775    8.88842    5.90948
       H    17.20375    4.39647    5.57052
       O    18.00946    4.21487    5.02388
      H1    18.23906    3.32945    5.36087
       H    14.97510    7.08584   -1.26035
       O    14.16351    6.59111   -1.12919
      H1    14.27267    6.52656   -0.13712
       H    19.25458    2.93140    2.02363
       O    18.44951    2.40182    2.27786
      H1    18.81946    2.16405    3.12129
       H    17.28211   13.53979   10.43612
       O    16.98249   12.61021   10.37866
      H1    17.09265   12.40456    9.44146
       H    11.82419   11.84335    2.46918
       O    12.55549   11.51496    2.98850
      H1    12.64584   10.61885    2.66847
       H    14.69913    6.36851    6.21460
       O    15.14534    6.48252    7.09101
      H1    14.43081    6.80570    7.60487
       H    19.77149   10.99249   -1.13010
       O    19.20404   11.59954   -1.61461
      H1    18.38837   11.13414   -1.48801
       H    14.14793   11.19825    7.94950
       O    13.45480   10.53353    8.25340
      H1    13.40923    9.90068    7.49217
       H    16.40115   12.24663    6.93631
       O    17.10494   12.54257    7.58179
      H1    16.79970   13.45496    7.86503
       H    18.55206    7.76539    7.99940
       O    19.27931    8.27975    7.59099
      H1    19.38705    7.77899    6.75534
       H    18.14612    4.90073    8.44964
       O    18.27445    3.90510    8.44837
      H1    19.03073    3.79898    9.04977
       H    17.45169    6.11404    9.69667
       O    17.39176    6.45071    8.83115
      H1    16.46932    6.18745    8.54723
       H    18.59319    7.29836   -3.19780
       O    17.87449    6.85218   -2.73444
      H1    17.67255    7.45126   -2.00332
       H    17.17493    9.16584    5.06538
       O    17.53165    8.75543    4.21611
      H1    18.47355    9.05413    4.21956

