90
frame 2 | Written by MDAnalysis XYZWriter (release 2.4.3)
       H     1.19909    3.74925   -9.20752
       O     1.28498    4.54517   -8.60597
      H1     1.10968    5.33573   -9.25822
       H    -3.63406    9.91850   -5.49230
       O    -4.12002    9.10464   -5.76461
      H1    -3.66551    8.76770   -6.53864
       H     2.43969    1.56910   -9.63244
       O     1.75351    2.10516  -10.04678
      H1     1.21090    1.59515  -10.60336
       H    -2.24860    3.81554   -4.25278
       O    -1.40608    3.32453   -4.25627
      H1    -0.85953    3.97737   -3.73995
       H     0.05731    8.35133   -7.99358
       O    -0.67399    8.15024   -7.32388
      H1    -0.54643    8.96256   -6.74733
       H    -4.03269    4.57908   -3.66731
       O    -3.41586    5.18149   -4.11719
      H1    -3.74649    5.13243   -5.03810
       H    -3.49233    0.03619   -5.18778
       O    -3.04515   -0.69237   -4.72633
      H1    -2.13873   -0.36467   -4.64113
       H    -3.04480    0.25837   -2.86866
       O    -3.71907    0.20973   -2.14838
      H1    -3.20839    0.35080   -1.32314
       H    -0.83805    5.59677   -2.66774
       O    -0.05745    5.15018   -3.08365
      H1     0.56583    5.08533   -2.34508
       H     2.30613    8.26498   -8.67108
       O     1.45649    8.19502   -9.15028
      H1     1.64497    7.51478   -9.80964
       H    -1.35236    4.70546  -10.42510
       O    -1.75212    3.90693  -10.78214
      H1    -1.91626    3.33689   -9.98926
       H    -0.57809    1.36277  -12.32528
       O    -0.03984    2.10870  -12.16376
      H1    -0.65601    2.67744  -11.64515
       H    -2.19021   -0.89642   -6.84986
       O    -1.87909   -1.29765   -7.63477
      H1    -1.10646   -0.72336   -7.77715
       H     5.37689    2.16764   -6.92920
       O     5.49386    3.06530   -7.28866
      H1     4.74481    3.53311   -6.88468
       H    -4.81320    7.88437   -4.19809
       O    -4.43371    7.52210   -3.38275
      H1    -4.01558    6.78357   -3.82070
       H    -4.28754    2.09983   -7.36008
       O    -4.38439    1.81465   -6.45077
      H1    -5.17820    1.24099   -6.51177
       H    -0.02207    1.87526   -7.54741
       O    -0.24797    0.99115   -7.97235
      H1     0.35281    0.89763   -8.72303
       H    -5.31408    4.24839   -6.94627
       O    -6.04041    4.45294   -7.53152
      H1    -5.64889    4.22310   -8.37171
       H    -5.51948    4.67976  -10.94877
       O    -5.12570    4.44336  -10.08773
      H1    -4.27292    4.86441  -10.28789
       H    -0.33254    4.30865   -7.65218
       O    -0.76485    3.54998   -7.24564
      H1    -0.63476    3.86753   -6.27672
       H     0.03159    6.17131   -5.19891
       O     0.82434    6.63371   -5.41659
      H1     0.48219    7.10557   -6.18473
       H    -2.11304    7.65905   -8.17804
       O    -2.93055    7.29762   -8.57076
      H1    -3.47258    8.11774   -8.63776
       H    -0.75208    6.82214  -10.69209
       O    -1.00571    6.33292   -9.94301
      H1    -1.87275    6.63876   -9.57955
       H    -2.63348    4.68957   -7.05250
       O    -3.37875    5.20267   -6.81829
      H1    -3.50610    5.94100   -7.50974
       H     0.17090    0.20406   -3.74201
       O    -0.57522    0.61166   -3.33374
      H1    -0.66895    1.42351   -3.79141
       H     0.86984    7.70712   -3.43019
       O     0.94511    8.35158   -2.71997
      H1     1.45723    7.79905   -2.15375
       H    -2.11853    2.44453   -8.11407
       O    -2.77811    2.29653   -8.82477
      H1    -2.53630    1.36919   -9.03658
       H     0.78818    0.87222   -1.53788
       O     0.97858    0.14135   -1.01438
      H1     1.81381   -0.13344   -1.38088
       H     3.17746    8.08193   -6.18826
       O     3.16815    8.68890   -5.41968
      H1     2.52477    8.22445   -4.85290
       H     2.26307    5.12810   -5.79265
       O     2.46272    4.22844   -6.12759
      H1     1.96615    4.19380   -6.95465

