90
frame 1 | Written by MDAnalysis XYZWriter (release 2.4.3)
       H   -14.69875   -3.57430   -3.46350
       O   -15.41750   -3.01116   -3.04272
      H1   -15.23323   -3.25694   -2.08726
       H   -12.69587   -8.69956   -1.78806
       O   -12.43216   -9.30505   -2.52100
      H1   -11.48194   -9.26536   -2.45427
       H    -6.52870   -9.23927   -5.47094
       O    -6.90753   -9.47909   -4.62409
      H1    -7.29691   -8.63779   -4.35914
       H   -10.49041   -3.81031   -4.65480
       O   -11.10123   -4.57116   -4.66013
      H1   -10.49371   -5.19012   -4.15269
       H   -11.30696   -3.12883   -1.06789
       O   -11.09124   -2.22677   -1.30284
      H1   -10.14620   -2.23104   -1.00543
       H   -11.37982    1.31394   -3.69258
       O   -11.17495    0.69446   -2.93103
      H1   -11.58217   -0.12829   -3.24352
       H   -10.35342   -8.22974   -9.44704
       O   -10.90103   -7.57162   -9.02905
      H1   -11.17919   -6.99012   -9.77879
       H   -12.82338   -4.06287   -8.64056
       O   -12.59284   -3.22314   -8.98520
      H1   -12.76958   -2.57429   -8.28966
       H    -6.23242   -6.14925   -2.99033
       O    -5.84177   -6.35965   -2.13304
      H1    -5.35117   -5.55622   -1.84719
       H   -14.69012   -4.79867   -7.55742
       O   -14.97667   -4.52966   -6.64351
      H1   -15.17878   -3.64372   -6.82368
       H   -13.96349   -4.00829   -0.16919
       O   -13.00236   -4.27781   -0.21021
      H1   -12.92331   -4.95209    0.51268
       H    -9.92565   -6.83599   -8.06001
       O    -9.30704   -6.46442   -7.34743
      H1    -9.74335   -6.80240   -6.52919
       H   -15.19114   -0.28161   -4.77751
       O   -15.10031   -0.36430   -5.74082
      H1   -14.17252   -0.71077   -5.91096
       H   -11.26174   -3.80798  -10.09309
       O   -10.76112   -3.98450  -10.87403
      H1   -11.05811   -4.88821  -11.25165
       H    -7.73549   -7.43351   -1.19239
       O    -8.38991   -7.33310   -0.48935
      H1    -8.16880   -6.48851   -0.09143
       H   -13.32553   -6.74332   -4.57049
       O   -13.23044   -7.63756   -4.93219
      H1   -13.49937   -8.23879   -4.24702
       H    -9.90033   -1.41112   -3.51474
       O    -9.13452   -1.60622   -4.04194
      H1    -8.55699   -0.86567   -3.77392
       H    -9.47913   -8.53980   -2.45696
       O    -9.31175   -9.39687   -2.92215
      H1    -9.61012   -9.27977   -3.84738
       H   -11.49425   -7.81302   -5.36386
       O   -10.58157   -8.07762   -5.36442
      H1   -10.45148   -8.61200   -6.15241
       H    -9.46588   -0.38623   -6.04269
       O    -9.84156   -0.35556   -6.91486
      H1   -10.18925    0.51468   -6.81770
       H    -7.21711   -4.94817   -9.01079
       O    -6.91439   -5.08133   -8.10141
      H1    -7.70647   -5.45562   -7.73073
       H   -10.97352   -6.66063   -2.50295
       O   -10.06754   -6.47322   -2.75697
      H1    -9.66873   -6.48002   -1.81406
       H   -12.54672   -1.99247   -5.81088
       O   -12.59755   -1.50812   -6.68415
      H1   -11.72674   -1.19092   -6.84713
       H   -14.16838   -4.80433   -4.98563
       O   -13.80743   -5.06135   -4.12848
      H1   -12.91741   -4.78294   -4.19683
       H   -13.71817   -7.60825   -6.74691
       O   -13.81809   -8.16311   -7.56173
      H1   -12.87135   -8.34551   -7.74399
       H   -13.08417   -6.40351   -2.38837
       O   -12.57050   -6.59886   -1.62245
      H1   -12.75192   -5.87745   -0.97475
       H    -8.37896   -3.30125   -4.88705
       O    -8.08212   -4.14815   -5.29060
      H1    -8.79508   -4.38719   -5.87721
       H    -8.25410   -6.51513   -3.81910
       O    -7.39859   -6.50733   -4.30662
      H1    -7.35932   -5.61754   -4.71149
       H   -12.13271   -2.09653   -2.97028
       O   -12.35147   -1.46306   -3.72374
      H1   -13.27371   -1.29055   -3.41314
       H   -14.20096   -6.17169   -9.86961
       O   -13.88156   -5.69355   -9.06094
      H1   -14.09642   -6.42931   -8.45168

