90
frame 1 | Written by MDAnalysis XYZWriter (release 2.4.3)
       H    -2.34833   -4.60142   -0.36260
       O    -2.13285   -5.43169    0.09870
      H1    -3.00022   -5.63879    0.55192
       H    -0.63380   -0.26769   -0.68254
       O    -1.33471   -0.56532   -0.11754
      H1    -1.84192    0.29255    0.20006
       H   -11.30696   -3.12883   -1.06789
       O   -11.09124   -2.22677   -1.30284
      H1   -10.14620   -2.23104   -1.00543
       H    -6.23242   -6.14925   -2.99033
       O    -5.84177   -6.35965   -2.13304
      H1    -5.35117   -5.55622   -1.84719
       H    -3.70932   -0.01722   -3.10966
       O    -3.88006    0.50732   -2.27988
      H1    -3.05725    0.39202   -1.82623
       H    -3.28013   -3.35214    2.12753
       O    -3.89177   -3.43321    1.34106
      H1    -4.56865   -2.83530    1.61571
       H    -7.73549   -7.43351   -1.19239
       O    -8.38991   -7.33310   -0.48935
      H1    -8.16880   -6.48851   -0.09143
       H    -9.23276   -3.03177    3.44268
       O    -8.77514   -2.23320    3.73062
      H1    -7.85553   -2.38748    3.47628
       H    -6.08584    1.95363    2.97447
       O    -6.70345    1.60090    2.31962
      H1    -7.30352    1.08744    2.91036
       H    -9.30206   -1.43150    1.33404
       O    -9.07441   -1.11512    0.46074
      H1    -8.08741   -1.24290    0.50414
       H    -4.25980   -4.93289    1.68043
       O    -4.56028   -5.87946    1.55218
      H1    -4.62041   -6.21915    2.48117
       H    -6.34782   -2.38922    0.33266
       O    -6.44347   -1.86847    1.11670
      H1    -6.03878   -1.00843    0.88427
       H    -9.90033   -1.41112   -3.51474
       O    -9.13452   -1.60622   -4.04194
      H1    -8.55699   -0.86567   -3.77392
       H    -2.39987   -0.82356    4.82991
       O    -2.29013   -1.69420    5.25183
      H1    -2.49935   -2.34386    4.60627
       H    -7.13234    0.98913   -3.15838
       O    -7.12353    0.15666   -3.72166
      H1    -6.61031   -0.46806   -3.14345
       H    -9.84343    0.55872    0.35279
       O   -10.01499    1.53428    0.30089
      H1    -9.13133    1.92555    0.33214
       H    -6.26428   -5.35740    0.66089
       O    -7.14489   -4.98592    0.61810
      H1    -7.63113   -5.26587    1.44746
       H    -1.37611   -3.87602    2.32040
       O    -1.83178   -3.74015    3.18717
      H1    -1.78211   -4.63328    3.60113
       H    -6.67070    2.93889   -1.74413
       O    -7.15302    2.14876   -1.53498
      H1    -6.49039    1.73832   -0.95253
       H    -1.97962    1.71585    4.10855
       O    -2.48977    0.96204    3.75363
      H1    -3.42891    1.37472    3.88191
       H    -5.24340   -1.16738   -1.83058
       O    -6.02852   -1.72180   -2.02596
      H1    -5.61887   -2.61257   -2.12158
       H    -3.76938   -3.85968   -1.99722
       O    -4.46346   -4.11996   -2.59179
      H1    -4.02223   -3.80984   -3.41271
       H   -12.40592   -2.13013    3.13171
       O   -11.73359   -1.70211    2.53246
      H1   -12.21083   -1.59063    1.73579
       H    -9.16181   -2.87939    5.15710
       O    -9.38566   -3.49897    5.90152
      H1    -8.58017   -3.89381    6.22223
       H    -6.43780   -1.10197    5.96408
       O    -5.56466   -0.76747    5.74754
      H1    -5.04399   -1.57979    5.81363
       H    -4.97443    0.85228   -0.00578
       O    -5.86127    0.49362    0.08438
      H1    -6.08173    0.91436    0.93286
       H   -10.07547   -5.24869    2.16596
       O    -9.30790   -4.97227    2.70797
      H1    -9.16039   -5.68202    3.33066
       H    -2.63708    1.18727    1.91572
       O    -2.74292    1.42282    0.97112
      H1    -2.20368    2.26546    0.92733
       H    -9.85518    0.81875    3.56377
       O    -9.06046    0.41623    3.92623
      H1    -9.25819   -0.54325    3.83138
       H    -1.44437   -2.91543   -1.98132
       O    -2.23040   -2.94505   -1.42187
      H1    -2.07783   -2.15350   -0.90981

