90
frame 1 | Written by MDAnalysis XYZWriter (release 2.4.3)
       H    -3.16159   15.19964    7.09839
       O    -2.43637   14.94734    6.46468
      H1    -1.65639   14.94622    7.13304
       H    -4.13545   18.68334    3.12458
       O    -3.56401   17.90434    3.28861
      H1    -2.87945   18.09499    2.57684
       H    -0.71227   11.14233    5.61295
       O    -0.54952   10.26989    5.23091
      H1    -0.80905   10.40157    4.29625
       H    -0.44181   12.33292    8.66448
       O    -0.67549   12.35232    9.61444
      H1    -0.00519   11.70245    9.86309
       H    -3.51380   13.64918    5.44912
       O    -4.14345   12.93913    5.27370
      H1    -4.25641   12.47152    6.10560
       H    -5.31410   16.54450    6.25023
       O    -5.33801   15.64076    6.51030
      H1    -5.50457   15.29757    5.58581
       H     2.19782   17.75263   -1.02876
       O     2.10709   18.26856   -0.22567
      H1     1.22562   18.70012   -0.30559
       H     4.12862   14.49045    1.76663
       O     3.71169   13.89247    2.34412
      H1     4.29129   13.93581    3.11144
       H     0.98115   11.87622    2.36730
       O     1.32249   11.02035    2.74764
      H1     0.84919   10.47301    2.08924
       H    -0.54537   13.65168    3.03812
       O    -0.99616   14.00372    3.77235
      H1    -1.76719   14.42642    3.41351
       H    -2.87626   15.72063   -0.27079
       O    -2.10798   16.10432   -0.75429
      H1    -2.51765   16.13518   -1.66783
       H    -1.48968   19.06886    0.76953
       O    -1.80862   19.41540    1.56849
      H1    -0.95146   19.46264    2.04155
       H     1.99755   14.28520    5.06346
       O     1.19902   14.01554    5.45216
      H1     0.60767   14.06236    4.71192
       H    -0.32307   13.13772    6.37741
       O    -0.92670   12.48033    6.78628
      H1    -1.74125   12.81160    6.44976
       H     3.08585   18.87577    1.25791
       O     3.46155   19.41272    1.96470
      H1     4.34575   19.02501    2.12789
       H    -3.59266   16.04252    2.94198
       O    -3.23329   15.15494    2.83421
      H1    -3.75777   14.99076    1.98014
       H     3.05859   12.36853    7.88780
       O     2.43192   11.63722    7.61778
      H1     2.37759   11.52964    6.68792
       H    -3.42438   17.72093    9.46587
       O    -2.95063   16.98271    9.83386
      H1    -2.05919   17.09818    9.47849
       H     5.11925   12.60912    7.21326
       O     4.62654   13.33677    7.58728
      H1     4.37730   13.77352    6.72550
       H    -5.13708   14.14648    4.15855
       O    -6.02720   14.62811    4.20686
      H1    -6.05395   15.12002    3.38720
       H     1.18902   13.21369   10.04191
       O     1.66588   14.05013    9.82856
      H1     1.22798   14.32836    9.05432
       H     0.51364   17.98424    9.56913
       O    -0.11341   17.31618    9.87211
      H1     0.37232   16.83507   10.49894
       H     0.21453   16.15188    7.96724
       O     0.23069   15.21729    7.62806
      H1     0.79927   15.28396    6.83967
       H     1.79566   17.49368    5.49872
       O     2.74224   17.34421    5.55236
      H1     3.07269   18.27820    5.55692
       H    -2.61672   16.93884    6.23823
       O    -2.43277   17.89627    6.22893
      H1    -2.88701   18.10008    5.43279
       H    -5.16578   15.11178    0.75257
       O    -4.28617   14.63305    0.58848
      H1    -4.59574   13.79598    0.18465
       H     3.76324   15.74602    5.36620
       O     3.91909   14.77553    5.36142
      H1     4.87136   14.74116    5.30085
       H    -0.57692   16.49236    4.85694
       O    -0.26101   17.35746    5.06054
      H1    -0.98814   17.67511    5.62308
       H     0.61422   14.43120    1.62259
       O     1.04037   13.55548    1.53629
      H1     1.93125   13.68214    1.87301
       H     0.53210   16.37948   -0.04419
       O     0.03991   16.30061    0.75281
      H1    -0.86805   16.03611    0.43665

