90
frame 1 | Written by MDAnalysis XYZWriter (release 2.4.3)
       H     4.10615  -15.23507  -13.92647
       O     4.93326  -15.65598  -13.63607
      H1     5.51559  -14.88868  -13.47223
       H     2.15569  -13.28227  -11.99512
       O     3.04796  -13.15612  -12.36326
      H1     2.90739  -13.47543  -13.24730
       H     2.10486  -12.08551  -17.22501
       O     2.99704  -11.78527  -17.29552
      H1     3.22547  -12.20928  -18.12803
       H     3.62855  -14.20166  -11.12125
       O     4.07396  -15.02492  -10.83642
      H1     4.25747  -15.43377  -11.67474
       H    10.45397  -10.18716   -9.71029
       O    11.10355  -10.27953  -10.42595
      H1    10.93474  -11.15742  -10.84866
       H     9.30617   -8.26104  -14.72993
       O     8.61801   -7.85563  -15.25867
      H1     9.00033   -6.96443  -15.36085
       H     2.35875   -9.86181  -11.30578
       O     1.73997   -9.40432  -10.75248
      H1     2.03562   -8.45753  -10.83772
       H     5.77839  -13.94250  -11.28517
       O     6.50447  -13.96437  -11.89675
      H1     7.28870  -13.73890  -11.32373
       H     8.50690   -9.01692  -16.76604
       O     8.60877   -9.44259  -17.65498
      H1     7.81462   -9.91313  -17.84906
       H     8.87442   -8.40192  -10.32057
       O     7.99816   -8.67172  -10.57578
      H1     7.65116   -7.86019  -10.90473
       H     5.70336   -8.85914  -13.14604
       O     6.34531   -9.57347  -13.20303
      H1     7.01436   -9.16999  -13.72137
       H    10.60023  -11.87518  -15.68022
       O    10.19176  -12.28012  -14.90889
      H1     9.42468  -11.71211  -14.74975
       H     5.74631   -9.87429  -19.22514
       O     6.00053  -10.61606  -18.65920
      H1     5.61598  -10.54390  -17.75697
       H    11.52466  -10.07945  -17.15091
       O    11.02141  -10.89623  -17.11264
      H1    10.10828  -10.59298  -17.11095
       H     8.95868  -14.29663  -15.38573
       O     8.17537  -14.73738  -15.75829
      H1     8.11341  -15.59469  -15.32184
       H     6.49092  -13.70087  -15.79202
       O     5.69174  -13.15334  -15.83008
      H1     5.91326  -12.48447  -15.14352
       H     2.38738  -14.30394  -15.72995
       O     2.88874  -13.92409  -15.03150
      H1     3.58502  -13.52982  -15.51252
       H     6.70887  -11.30211  -13.72508
       O     7.14979  -12.15697  -14.02377
      H1     7.02571  -12.67117  -13.17135
       H     6.53548   -7.16547  -16.67923
       O     6.50107   -6.29701  -17.00832
      H1     5.63691   -6.23891  -17.49666
       H     1.57475   -8.87714  -14.88718
       O     2.11172   -9.47302  -14.29959
      H1     1.47205  -10.14988  -14.06346
       H    11.47467   -9.65272  -14.46595
       O    10.88296   -8.98341  -14.16299
      H1    11.37126   -8.52964  -13.46917
       H     5.02824   -6.97796   -9.89051
       O     5.16956   -7.63270  -10.59206
      H1     4.44927   -7.59002  -11.22886
       H     4.64093   -9.52419   -9.59706
       O     4.61360  -10.03763   -8.75510
      H1     4.08009  -10.87650   -9.01199
       H     5.96109  -12.01887  -10.26025
       O     5.44187  -12.61661   -9.69281
      H1     6.13418  -13.04332   -9.23940
       H     4.08669   -6.94521  -13.80112
       O     3.91923   -7.68156  -13.15969
      H1     3.20435   -8.19554  -13.61437
       H    10.98085  -13.12624  -10.62965
       O    10.58689  -12.96616  -11.54710
      H1    10.96474  -13.65379  -12.10313
       H     4.99692  -13.83361  -17.39627
       O     4.85539  -14.50399  -18.13609
      H1     5.74183  -14.86776  -18.29327
       H     3.69236  -10.86251  -15.96906
       O     4.56342  -10.50785  -15.73883
      H1     4.34309   -9.90204  -15.00189
       H     9.03866  -12.20580  -11.01534
       O     8.14428  -11.83494  -10.84700
      H1     8.18448  -10.93232  -11.25367
       H     4.03961  -11.66206  -11.92046
       O     4.19019  -10.84207  -11.48215
      H1     4.75191  -10.26514  -12.03990

