90
frame 4 | Written by MDAnalysis XYZWriter (release 2.4.3)
       H   -19.36456    0.50327   -4.63987
       O   -18.68007    0.86028   -5.26031
      H1   -17.82152    0.79002   -4.76911
       H   -19.59179    0.37658  -10.84356
       O   -18.85454    0.82473  -10.42544
      H1   -18.60387    0.25308   -9.71717
       H   -13.68319    1.19450   -7.24831
       O   -12.95771    1.01958   -6.62752
      H1   -12.15934    1.05727   -7.21816
       H   -18.15923   -3.12216  -11.13715
       O   -17.86349   -2.74747  -11.98187
      H1   -18.18556   -3.52868  -12.53033
       H   -17.75839    1.45671  -14.82314
       O   -17.82274    1.79432  -13.89568
      H1   -17.20453    2.52956  -14.00016
       H   -16.12925    0.55672  -13.66776
       O   -15.33685    0.17462  -13.27854
      H1   -14.73518    0.10737  -14.03569
       H   -17.79988    4.10247  -10.77600
       O   -18.02929    3.54803  -11.50897
      H1   -18.27332    2.73352  -11.10492
       H   -15.87363   -3.15737  -11.88064
       O   -14.91232   -3.27423  -11.95901
      H1   -14.72363   -4.08465  -11.44227
       H   -15.72010   -1.70978   -8.83640
       O   -15.46951   -2.64720   -8.99975
      H1   -15.08534   -2.60193   -9.88375
       H   -15.53363    1.29697  -11.73294
       O   -15.74084    2.11888  -11.19781
      H1   -16.53751    2.48641  -11.63181
       H   -16.48905   -5.61955   -8.94893
       O   -16.77374   -4.90738   -8.33221
      H1   -16.23100   -4.11203   -8.61228
       H   -13.44250   -0.06146  -10.32780
       O   -12.57922   -0.25196   -9.99133
      H1   -11.99006   -0.06467  -10.82261
       H   -13.57266   -2.20761  -12.70218
       O   -12.77010   -1.82560  -13.08212
      H1   -13.06598   -1.40348  -13.91590
       H   -11.60698    4.46251  -10.42710
       O   -11.99419    3.80788  -10.99220
      H1   -12.77543    4.19493  -11.36147
       H   -19.95203   -1.99821   -7.07484
       O   -19.23602   -2.69418   -7.03081
      H1   -18.38759   -2.29439   -7.29667
       H   -14.59132    6.94528   -8.15450
       O   -15.43303    7.34353   -8.35145
      H1   -15.79962    6.66203   -8.92318
       H   -12.92432    5.74578   -6.51244
       O   -13.24099    5.40922   -7.36956
      H1   -12.57768    5.62725   -8.05103
       H   -15.79253    3.46839   -7.14379
       O   -15.05163    3.11719   -7.60761
      H1   -14.35001    3.70426   -7.31371
       H   -12.26780   -1.32647   -4.37922
       O   -12.19455   -1.41719   -5.35202
      H1   -12.55984   -0.63732   -5.70883
       H   -19.65180   -0.89811  -13.27343
       O   -19.31217   -1.18981  -14.11564
      H1   -18.37414   -1.40058  -13.87079
       H   -18.25859   -0.01887   -7.11732
       O   -17.84981   -0.50196   -7.79035
      H1   -17.08226    0.03478   -8.17437
       H   -18.53699    4.23183  -13.01418
       O   -18.93006    4.74857  -13.73332
      H1   -19.63350    4.16055  -14.16690
       H   -16.12158    1.16424   -9.56242
       O   -15.87119    0.76020   -8.74883
      H1   -15.74942    1.48579   -8.13350
       H   -16.28196    6.34496  -10.84560
       O   -16.69674    5.68870  -10.16729
      H1   -17.63485    5.99219  -10.13618
       H   -14.76733    5.52044  -11.80179
       O   -14.47305    4.77775  -12.39779
      H1   -14.81619    3.96585  -11.95475
       H   -11.92394   -2.21566   -8.60319
       O   -11.79513   -3.09876   -8.17956
      H1   -12.00043   -2.94938   -7.25674
       H   -17.30570    5.44121   -5.69715
       O   -17.39252    4.45312   -5.82442
      H1   -18.31572    4.20683   -5.67346
       H   -16.25037    4.48505  -15.04272
       O   -16.02195    3.86407  -14.33239
      H1   -15.46014    4.35889  -13.71264
       H   -15.87962    1.17882   -3.70751
       O   -16.29610    0.28373   -3.92911
      H1   -15.72331   -0.13526   -4.57176
       H   -11.56992    0.73356   -9.04485
       O   -10.77012    1.17766   -8.64023
      H1   -10.18907    0.50233   -8.27058

