90
frame 0 | Written by MDAnalysis XYZWriter (release 2.4.3)
       H    -9.33150    7.77100  -12.40631
       O    -8.74491    7.58893  -13.22483
      H1    -7.95544    8.18700  -13.18488
       H    -4.08414    1.83280  -18.37625
       O    -3.25622    2.17867  -18.02229
      H1    -2.71988    1.57376  -18.50620
       H    -7.14358    1.52628  -17.19292
       O    -7.74278    1.22726  -16.47004
      H1    -7.82878    0.25297  -16.66365
       H    -4.30060    4.10436  -19.72556
       O    -3.70366    4.64120  -19.26224
      H1    -3.25995    3.99459  -18.67909
       H    -2.29830    3.69246  -14.08343
       O    -3.22070    3.57310  -13.95825
      H1    -3.25102    3.42561  -12.97698
       H    -4.91380    1.80285  -14.66154
       O    -5.73769    1.33965  -14.49054
      H1    -6.34959    1.45920  -15.24733
       H    -6.78412    5.59513  -15.98458
       O    -6.70135    6.48630  -15.59747
      H1    -6.58299    6.26199  -14.64387
       H    -4.40309    7.96353  -14.52769
       O    -4.95473    8.70014  -14.72462
      H1    -5.46531    8.27469  -15.35446
       H   -10.93351    7.73047  -15.70112
       O   -10.66261    8.61074  -15.93461
      H1   -11.45232    8.92064  -16.33121
       H    -2.24729   10.21566  -17.02712
       O    -2.41414    9.87963  -16.08697
      H1    -3.38305    9.79328  -16.13913
       H    -4.81483    9.84341  -17.74710
       O    -5.08568   10.67961  -17.36209
      H1    -6.02052   10.46787  -17.08337
       H    -0.82205    4.43749  -18.37216
       O    -1.47447    4.55728  -17.63526
      H1    -1.60347    3.62893  -17.37506
       H    -9.16182    8.40654  -16.40581
       O    -8.25897    8.23530  -16.69230
      H1    -7.94169    7.63358  -15.98452
       H    -8.06625   10.14749  -16.27784
       O    -7.78412   11.05821  -16.59962
      H1    -8.02747   11.60931  -15.78686
       H    -7.11184    4.85257  -12.69931
       O    -6.80443    5.72979  -12.97406
      H1    -7.64778    6.22600  -13.16700
       H    -3.12943    1.62422  -16.49317
       O    -2.90613    1.34467  -15.52008
      H1    -3.12933    2.20489  -15.10960
       H    -1.97922    6.51435  -16.26077
       O    -1.67737    7.14568  -15.53171
      H1    -2.04032    8.01450  -15.74946
       H    -6.41210    7.54726  -18.93158
       O    -7.28824    7.11786  -18.94515
      H1    -7.67335    7.41267  -18.08617
       H   -12.93550    3.92649  -18.75851
       O   -13.30889    4.84188  -18.71125
      H1   -13.69385    4.83108  -17.86007
       H    -8.16846    2.18338  -12.72895
       O    -7.24594    2.56816  -12.58536
      H1    -6.64133    1.99646  -13.15826
       H   -10.66195    1.58338  -16.58818
       O   -10.24041    2.17839  -15.95894
      H1    -9.33460    1.83575  -15.95578
       H    -7.63901    4.23400  -17.56304
       O    -6.65562    4.43999  -17.72098
      H1    -6.71403    5.26877  -18.24149
       H   -11.13947    5.69167  -15.04203
       O   -11.37842    6.39267  -14.43863
      H1   -10.58595    6.64221  -13.93236
       H    -9.70094    3.59471  -16.83115
       O    -9.35920    4.05399  -17.60452
      H1    -9.95428    4.83302  -17.58537
       H   -11.87073    5.96117  -17.91094
       O   -11.02244    6.23339  -17.46556
      H1   -10.61352    6.72808  -18.13565
       H    -4.10235    7.63224  -18.63276
       O    -4.80126    7.77397  -17.99068
      H1    -4.85641    6.94738  -17.45321
       H   -11.88806    2.18864  -19.74253
       O   -11.39890    3.05283  -19.76172
      H1   -10.98618    3.10036  -18.86486
       H   -12.64718    2.40417  -14.34384
       O   -12.21673    3.20584  -14.12172
      H1   -11.32623    2.98204  -14.52186
       H    -3.96230    5.40713  -13.51952
       O    -3.70994    6.31141  -13.77046
      H1    -3.02962    6.19816  -14.47006
       H    -6.28850    2.90037  -18.57165
       O    -6.03219    2.07757  -19.02873
      H1    -6.44613    2.13104  -19.94402

