90
frame 1 | Written by MDAnalysis XYZWriter (release 2.4.3)
       H    -4.32914  -12.45706  -16.04326
       O    -4.83235  -13.22987  -16.35891
      H1    -5.64949  -12.81946  -16.62151
       H    -5.44075  -13.41953  -14.80779
       O    -5.84751  -13.48399  -13.89655
      H1    -6.66362  -13.01861  -14.01501
       H    -2.33839  -11.42165  -15.96573
       O    -3.08954  -11.29053  -15.32287
      H1    -2.87652  -12.02127  -14.68260
       H   -12.36145  -14.82606  -13.78291
       O   -12.09486  -15.39484  -14.50328
      H1   -12.49333  -16.23343  -14.24499
       H    -8.77801  -12.07829  -14.68130
       O    -8.33954  -12.86688  -15.01913
      H1    -7.81526  -12.46976  -15.70386
       H   -10.37656   -9.88508  -16.35720
       O   -10.07420   -9.09524  -15.76359
      H1    -9.89413   -9.66693  -15.04348
       H   -11.74059  -11.14442  -18.63793
       O   -12.49732  -11.54781  -19.11178
      H1   -13.16046  -10.88243  -18.89469
       H   -10.24701  -11.66790  -17.75514
       O   -10.54799  -10.72214  -17.76562
      H1    -9.80305  -10.36927  -18.30961
       H    -9.22244  -15.69295  -17.96856
       O    -8.45622  -15.63995  -17.32213
      H1    -8.79941  -14.84283  -16.91942
       H    -6.61245   -9.65228  -13.57637
       O    -7.58886   -9.84340  -13.60880
      H1    -7.98111   -9.02536  -13.39652
       H    -4.27622  -15.51765  -13.67930
       O    -4.17460  -16.41563  -13.98090
      H1    -3.92210  -16.95187  -13.22643
       H   -10.10232  -12.66981  -13.14825
       O   -10.58754  -11.90616  -13.54745
      H1   -10.59794  -11.23567  -12.86634
       H   -10.01522  -13.18700  -16.01054
       O   -10.25957  -13.41394  -16.91364
      H1   -11.22275  -13.45942  -16.80145
       H    -5.14985  -13.26763  -11.39182
       O    -4.52287  -12.92003  -10.66754
      H1    -3.99235  -12.18525  -11.11220
       H   -12.69583   -8.72258  -14.08083
       O   -12.57546   -8.48024  -15.02092
      H1   -11.59844   -8.69145  -15.12910
       H    -6.75398  -15.95145  -13.71058
       O    -6.87563  -16.35977  -12.84392
      H1    -7.75544  -16.75595  -13.01487
       H    -6.78634  -14.75659  -11.85512
       O    -7.00984  -13.86434  -11.54653
      H1    -7.23469  -13.99281  -10.59890
       H    -4.23970  -14.70872  -17.02785
       O    -3.81381  -15.50806  -17.47591
      H1    -3.73378  -16.04793  -16.67241
       H    -7.72404  -10.95023  -12.30724
       O    -7.98981  -11.40296  -11.51692
      H1    -7.64769  -12.30524  -11.63090
       H    -8.92210   -7.33430  -17.89660
       O    -8.31099   -7.88235  -17.34433
      H1    -8.86232   -8.30515  -16.62082
       H    -6.28607  -10.78012  -17.11193
       O    -6.88969  -11.53857  -16.91751
      H1    -7.41824  -11.26020  -17.69618
       H    -8.79604   -9.89546  -10.87094
       O    -8.90674   -8.99387  -10.54824
      H1    -7.92253   -8.69160  -10.63367
       H   -11.03985  -12.46770  -10.58338
       O   -10.14296  -12.78569  -10.46583
      H1    -9.57823  -12.02959  -10.65336
       H    -7.89077   -9.37488  -18.55009
       O    -8.23333  -10.11667  -19.03493
      H1    -7.66982  -10.23068  -19.85622
       H    -4.23186   -8.25436  -13.64187
       O    -5.11776   -8.16383  -13.30041
      H1    -4.98366   -7.22725  -13.10512
       H   -13.52147  -13.08550  -16.25950
       O   -12.97923  -13.82620  -16.55891
      H1   -12.92360  -14.23436  -15.67549
       H    -6.68599  -16.71382  -18.04801
       O    -6.00603  -16.97605  -18.71374
      H1    -5.23602  -16.52002  -18.33345
       H    -4.47751  -10.21415  -16.10829
       O    -4.80491   -9.98695  -16.96452
      H1    -4.08038   -9.98608  -17.56277
       H    -9.14344  -16.28895  -15.53755
       O    -9.60138  -16.59186  -14.76244
      H1   -10.37563  -16.09447  -14.80729
       H    -7.49154   -6.67815  -15.91765
       O    -7.08279   -6.41554  -15.11517
      H1    -6.65809   -7.27534  -14.78624

