90
frame 2 | Written by MDAnalysis XYZWriter (release 2.4.3)
       H    10.38038   14.50141   13.11683
       O    10.12015   13.91535   12.33224
      H1     9.20924   14.18718   12.32776
       H    12.40791   14.14361   17.93049
       O    13.26658   14.10302   18.29981
      H1    13.50861   15.09094   18.46949
       H     3.12111   17.53429   14.66504
       O     4.07139   17.53931   14.86262
      H1     4.40015   17.73675   13.97865
       H     9.84031   17.97262   17.62997
       O    10.44879   17.20675   17.79154
      H1    11.28021   17.69381   17.72613
       H    10.43787   19.81145   15.34621
       O    11.31522   19.44157   14.96226
      H1    11.74604   19.19019   15.74635
       H     9.24365   11.69387   14.14918
       O     9.00668   12.29298   14.89123
      H1     9.17106   13.21137   14.59448
       H    10.62755   15.63300   11.31741
       O    10.72701   16.58898   11.49754
      H1    10.45250   16.80554   12.44627
       H     9.00850   17.76666   14.12479
       O     9.91947   17.40468   14.23345
      H1    10.43533   18.11017   14.62717
       H    11.39314   15.11150   15.09119
       O    11.64253   15.10661   14.09298
      H1    11.47308   15.99410   13.79407
       H     7.73650   15.38903   14.50472
       O     8.42811   15.09007   15.10228
      H1     9.13672   15.61770   14.76388
       H    13.51587   17.28794   18.20127
       O    13.64586   16.74654   19.02481
      H1    14.59733   16.81654   18.97918
       H    16.22083   19.14123   12.54320
       O    15.90453   18.68239   11.75466
      H1    14.98888   18.93804   11.77558
       H    14.09961   14.67768   10.53173
       O    14.41445   15.55890   10.76746
      H1    15.38490   15.40187   10.71525
       H     6.76829   18.09693   14.27046
       O     7.40435   18.06379   13.57651
      H1     6.84728   17.73986   12.81690
       H    10.25639   19.52082    9.69660
       O     9.56345   18.78752    9.88495
      H1    10.23090   18.13818   10.16296
       H     6.66075   17.79169    9.98645
       O     6.83950   18.06644    9.12905
      H1     7.76814   18.38133    9.25508
       H    10.90232   15.75323   17.26132
       O    10.93338   14.88030   16.77592
      H1    10.06895   14.50024   17.17185
       H     5.44924   14.29075   16.08010
       O     5.35586   14.17407   17.07906
      H1     6.30695   14.42241   17.25930
       H     5.66689   18.35343   18.96464
       O     6.26602   18.24866   19.76494
      H1     6.26688   17.30436   19.76751
       H     4.27411   18.66846   16.53858
       O     4.15483   19.24814   17.31533
      H1     3.71957   19.98346   16.87224
       H    12.48279   19.50827   17.69377
       O    12.72476   18.73054   17.12781
      H1    13.65318   19.06635   16.91492
       H    16.41174   18.65389   16.04280
       O    15.46257   18.69347   16.07344
      H1    15.26843   19.46719   15.52672
       H    13.30794   17.18905   10.28165
       O    12.70146   17.79395    9.75642
      H1    12.24449   17.27357    9.10535
       H    12.90949   13.48373   13.94760
       O    13.15138   12.71496   13.35439
      H1    13.92481   12.33001   13.85621
       H     7.48656   13.87305   11.47825
       O     7.59890   14.61881   12.05896
      H1     8.15915   15.22318   11.48756
       H     5.22517   15.97912   10.61910
       O     5.82728   16.48882   11.13252
      H1     6.34913   15.87197   11.68707
       H    14.25272   13.29928   16.91973
       O    14.27207   12.94108   16.01341
      H1    15.20702   12.67313   16.02508
       H    14.72084   15.16231   13.03914
       O    15.41901   15.14703   13.72274
      H1    14.95750   15.16970   14.56028
       H     4.83150   14.53551   13.85550
       O     5.28414   14.92816   14.60157
      H1     4.83697   15.74757   14.78786
       H     8.31458   14.63726   16.89499
       O     8.51686   14.22207   17.80386
      H1     8.47895   13.27335   17.63862

