90
frame 2 | Written by MDAnalysis XYZWriter (release 2.4.3)
       H   -17.99816   11.97494   -7.85929
       O   -17.74666   12.09617   -8.81375
      H1   -17.68413   13.09638   -8.77988
       H   -17.90903   16.43311  -17.54210
       O   -17.00217   16.53694  -17.87456
      H1   -16.97611   16.03162  -18.69525
       H   -19.07169   14.95478  -10.38854
       O   -19.34960   15.26735   -9.50630
      H1   -19.18998   16.19206   -9.63811
       H   -16.06654   15.39329  -13.68214
       O   -15.90339   15.54640  -12.72546
      H1   -16.32505   14.78947  -12.32459
       H   -13.68621   20.21436   -9.00839
       O   -14.56626   19.88312   -8.72107
      H1   -14.62464   18.98335   -9.19270
       H   -15.31779   16.97791   -9.61324
       O   -14.45239   17.36241   -9.72717
      H1   -14.24390   17.20189  -10.68502
       H   -14.02902   16.05149  -12.35363
       O   -13.24648   16.57464  -12.01425
      H1   -13.34700   17.34492  -12.58200
       H   -15.11649   10.86448   -9.22668
       O   -14.92159   11.60691   -8.65883
      H1   -15.75720   12.16270   -8.77531
       H   -16.54159   16.85417   -6.06408
       O   -16.13296   16.09435   -5.67213
      H1   -16.93225   15.78259   -5.15718
       H   -17.25978   19.18131   -7.11590
       O   -17.32417   18.52008   -6.40727
      H1   -18.19312   18.64113   -5.94903
       H   -12.95813   18.16270  -15.64110
       O   -13.12130   18.19768  -16.58363
      H1   -12.39079   17.66511  -16.89376
       H   -12.60084   19.48730  -13.73707
       O   -12.30342   18.64162  -14.11226
      H1   -11.39716   18.69935  -13.76589
       H   -15.64292   11.59793  -14.97853
       O   -16.39775   11.19859  -14.49017
      H1   -16.20261   11.34273  -13.55824
       H   -18.83657   17.12814  -12.77477
       O   -17.98405   17.61885  -12.66662
      H1   -17.39953   16.88593  -12.62486
       H   -12.53801   15.80429   -7.84104
       O   -12.23394   16.65733   -7.55331
      H1   -12.96097   16.88291   -6.89904
       H   -15.06563   19.25651  -16.86839
       O   -16.01546   18.98837  -16.74245
      H1   -16.13545   18.07139  -17.08566
       H   -16.34750   14.98145   -8.15233
       O   -16.66730   14.60219   -8.99301
      H1   -17.52439   15.07644   -9.04990
       H   -11.26381   16.25021  -14.32166
       O   -11.42076   15.45460  -13.74287
      H1   -12.17222   15.70558  -13.18313
       H   -17.00794   19.28946  -15.42323
       O   -17.72378   19.40661  -14.73603
      H1   -17.52579   18.64193  -14.12825
       H   -11.76443   17.21678   -8.98633
       O   -11.57431   17.63675   -9.89254
      H1   -12.29342   17.16512  -10.34801
       H   -17.59781   17.50814  -10.75048
       O   -17.40546   17.31936   -9.87378
      H1   -17.86185   18.02813   -9.43646
       H   -13.67351   12.91660   -9.61273
       O   -13.22499   12.96805  -10.47541
      H1   -12.28506   13.14793  -10.28679
       H   -19.46495   19.47626  -17.17712
       O   -19.80009   19.07111  -16.42323
      H1   -19.02180   19.02075  -15.89929
       H   -16.71378   18.99119   -4.26918
       O   -16.32508   19.15293   -3.38855
      H1   -16.85714   18.46322   -2.86912
       H   -18.12816   13.00222  -11.75664
       O   -17.64851   13.77251  -11.48702
      H1   -16.88153   13.36654  -11.06479
       H   -17.82276    9.26877  -10.80636
       O   -17.19022    9.94701  -10.60344
      H1   -17.68020   10.55508  -10.04457
       H   -16.07326   11.28164  -11.26929
       O   -15.58650   11.72075  -11.95189
      H1   -14.74953   11.92263  -11.49012
       H   -19.27801   12.53993  -13.94327
       O   -18.70440   12.75397  -14.67944
      H1   -17.83471   12.36592  -14.41491
       H   -14.28896   19.28169   -6.95142
       O   -13.99166   18.63331   -6.29284
      H1   -14.87109   18.30055   -6.01992
       H   -17.56824   14.49785  -15.34157
       O   -16.70705   14.91050  -15.53824
      H1   -17.01994   15.56578  -16.18730

