90
frame 4 | Written by MDAnalysis XYZWriter (release 2.4.3)
       H   -10.38763    6.71893   13.73623
       O   -10.83316    6.81241   14.61350
      H1   -11.52519    7.44587   14.51311
       H    -7.23431   11.00942   14.49633
       O    -7.67279   11.66876   15.07478
      H1    -7.02185   12.22309   15.53734
       H    -8.70511   15.38885   14.13181
       O    -8.14335   14.70673   13.69572
      H1    -8.78317   14.13030   13.30691
       H    -9.22940    8.97494    7.26130
       O    -8.37643    8.62618    7.36424
      H1    -8.50898    7.98235    8.09070
       H   -11.63067    9.11049    9.72552
       O   -11.80156    8.70208    8.88624
      H1   -12.18886    7.82897    9.10475
       H    -6.39738   12.27322    7.46783
       O    -5.91084   12.93655    7.96531
      H1    -6.45065   13.73342    7.90176
       H    -5.85544    9.28203   10.60685
       O    -6.32177   10.02394   10.91079
      H1    -6.39289   10.01868   11.87899
       H   -11.27801    9.13613    7.24716
       O   -10.68437    9.65465    6.61885
      H1   -11.10584    9.71044    5.77919
       H    -6.46996   14.79667   12.78397
       O    -5.81337   14.81999   12.11336
      H1    -5.81266   14.00493   11.55029
       H    -5.17052    6.81692   10.63575
       O    -5.65390    7.50124   10.16805
      H1    -4.91038    7.82938    9.53878
       H   -14.03935   10.73589   11.60753
       O   -13.64376   10.47737   10.75592
      H1   -14.18568   10.91664   10.11761
       H    -8.92130    5.34892   12.66048
       O    -9.56363    6.04719   12.42714
      H1   -10.35081    5.56347   12.08431
       H    -3.28234   11.64402   14.19226
       O    -3.97845   11.46441   13.59055
      H1    -3.61295   11.43919   12.70463
       H   -10.01286   11.73250   11.37755
       O   -10.40954   12.35919   11.99233
      H1   -10.92328   12.79071   11.34654
       H    -8.21222    5.22259    9.41763
       O    -8.04451    4.27551    9.44411
      H1    -7.43283    4.11757    8.71552
       H    -3.71085   11.72189   10.73883
       O    -3.04766   11.11817   11.15172
      H1    -3.37520   10.18483   11.16288
       H    -7.27171    5.93124    5.87040
       O    -7.21551    6.83341    5.61001
      H1    -7.55058    7.28745    6.38296
       H   -10.65893   15.81452    7.79573
       O    -9.99048   15.08283    7.92208
      H1    -9.47105   14.99722    7.15970
       H    -7.28281    7.57688   14.82886
       O    -6.52103    7.26208   14.31875
      H1    -5.91190    7.32737   15.10661
       H    -8.87420   10.88369   15.96219
       O    -9.60190   10.44418   16.45919
      H1    -9.60230   10.71728   17.36611
       H    -3.43753    9.94457    9.12812
       O    -3.70754    9.05217    8.95722
      H1    -3.02322    8.59883    8.51075
       H    -6.41524    9.16161   14.04087
       O    -6.35776   10.04863   13.62602
      H1    -5.43454   10.38864   13.73430
       H    -9.08505    6.99380   10.28870
       O    -8.50014    6.84409    9.53023
      H1    -7.59023    7.07835    9.81844
       H   -11.56921   10.17828   11.79776
       O   -11.04605    9.36545   11.76163
      H1   -10.20761    9.70070   11.42982
       H    -5.48317   12.85446    9.65240
       O    -5.38821   12.64927   10.56732
      H1    -5.69047   11.71018   10.55639
       H    -7.30169   16.15121    9.55907
       O    -7.34345   15.36379    9.04608
      H1    -8.28067   15.32918    8.75366
       H    -9.94231   12.51681    8.27182
       O    -9.73279   12.05779    7.43894
      H1   -10.17978   11.19278    7.41310
       H    -8.21321   10.45589   10.43452
       O    -9.03690   10.84140   10.01030
      H1    -8.74556   11.16689    9.16713
       H    -7.15009    9.98000    6.53401
       O    -7.19046   10.88049    6.21419
      H1    -8.11054   11.07064    6.28679
       H   -12.38290   13.35011    8.68027
       O   -11.99405   13.44856    9.58277
      H1   -11.57306   14.30594    9.53857

