90
frame 1 | Written by MDAnalysis XYZWriter (release 2.4.3)
       H    13.14842  -16.69485  -18.22383
       O    13.80154  -16.47845  -18.93366
      H1    14.44781  -17.23937  -18.72934
       H     5.97327  -18.30931  -15.43377
       O     5.09751  -18.07615  -15.07073
      H1     5.16879  -17.20490  -14.65536
       H     4.10615  -15.23507  -13.92647
       O     4.93326  -15.65598  -13.63607
      H1     5.51559  -14.88868  -13.47223
       H     1.06579  -17.59378  -19.63050
       O     0.31747  -17.82320  -19.10918
      H1     0.73647  -18.02036  -18.32419
       H     2.10486  -12.08551  -17.22501
       O     2.99704  -11.78527  -17.29552
      H1     3.22547  -12.20928  -18.12803
       H    11.73197  -13.58518  -15.87605
       O    12.51147  -13.95024  -16.22739
      H1    13.13038  -13.67177  -15.49753
       H     8.14985  -17.12164  -13.28663
       O     7.57933  -17.07336  -14.02343
      H1     6.79745  -16.71951  -13.60547
       H    12.89883  -16.87759  -13.70998
       O    12.99547  -17.56112  -14.41374
      H1    13.09832  -16.95650  -15.15633
       H     5.77839  -13.94250  -11.28517
       O     6.50447  -13.96437  -11.89675
      H1     7.28870  -13.73890  -11.32373
       H     7.36674  -19.18159  -18.17621
       O     7.71987  -18.67509  -17.45501
      H1     8.61767  -18.55743  -17.71949
       H     8.50690   -9.01692  -16.76604
       O     8.60877   -9.44259  -17.65498
      H1     7.81462   -9.91313  -17.84906
       H     4.78798  -13.23789  -19.34733
       O     4.41786  -12.38954  -19.66502
      H1     4.90220  -11.65380  -19.23748
       H     2.75496  -17.44450  -18.15126
       O     3.11559  -16.76889  -18.75151
      H1     3.38910  -16.07956  -18.10885
       H     2.55210  -18.01849  -15.17640
       O     2.01762  -17.20229  -15.23184
      H1     1.32010  -17.54720  -15.82470
       H    10.60023  -11.87518  -15.68022
       O    10.19176  -12.28012  -14.90889
      H1     9.42468  -11.71211  -14.74975
       H     5.74631   -9.87429  -19.22514
       O     6.00053  -10.61606  -18.65920
      H1     5.61598  -10.54390  -17.75697
       H    11.52466  -10.07945  -17.15091
       O    11.02141  -10.89623  -17.11264
      H1    10.10828  -10.59298  -17.11095
       H     8.95868  -14.29663  -15.38573
       O     8.17537  -14.73738  -15.75829
      H1     8.11341  -15.59469  -15.32184
       H     1.05543  -13.51563  -19.47293
       O     0.97063  -12.59454  -19.06511
      H1     0.47138  -12.18866  -19.78965
       H     6.49092  -13.70087  -15.79202
       O     5.69174  -13.15334  -15.83008
      H1     5.91326  -12.48447  -15.14352
       H     2.38738  -14.30394  -15.72995
       O     2.88874  -13.92409  -15.03150
      H1     3.58502  -13.52982  -15.51252
       H     6.70887  -11.30211  -13.72508
       O     7.14979  -12.15697  -14.02377
      H1     7.02571  -12.67117  -13.17135
       H     8.22896  -15.70996  -18.96758
       O     8.42046  -14.81923  -18.61358
      H1     8.46057  -14.96533  -17.65562
       H    10.77198  -17.13552  -17.83017
       O    10.06565  -17.65305  -18.24070
      H1     9.58468  -16.98238  -18.75799
       H    12.31411  -15.60081  -16.31161
       O    12.29630  -16.53241  -16.64769
      H1    11.84942  -17.03940  -15.91952
       H     5.12062  -17.31326  -18.10457
       O     5.96399  -16.95044  -18.51508
      H1     6.66288  -17.51650  -18.08829
       H    14.01420  -11.78778  -17.06141
       O    14.98380  -11.75512  -17.28683
      H1    15.01902  -12.55032  -17.87082
       H    15.09322  -15.13748  -18.95680
       O    15.23103  -14.16404  -19.11676
      H1    15.94645  -14.04544  -19.76402
       H     4.99692  -13.83361  -17.39627
       O     4.85539  -14.50399  -18.13609
      H1     5.74183  -14.86776  -18.29327
       H     3.69236  -10.86251  -15.96906
       O     4.56342  -10.50785  -15.73883
      H1     4.34309   -9.90204  -15.00189

