90
frame 1 | Written by MDAnalysis XYZWriter (release 2.4.3)
       H     4.54966   -1.07027    6.85325
       O     4.54157   -1.72889    6.09707
      H1     4.44150   -2.57723    6.61440
       H     0.87839   -1.52355    4.68979
       O     0.25983   -1.31338    3.88594
      H1    -0.63588   -1.43918    4.21169
       H    -0.02460   -3.97450    6.11184
       O     0.60444   -4.61345    5.75920
      H1     1.07788   -5.04844    6.54973
       H     6.71139   -4.19229    1.96738
       O     6.10618   -4.12713    1.21106
      H1     6.58576   -3.38063    0.75367
       H     1.31626   -5.23587   -1.29846
       O     1.05458   -5.46200   -2.25182
      H1     0.20444   -5.92197   -2.04843
       H    -2.61797   -7.72115    5.96663
       O    -2.71630   -7.90130    5.04345
      H1    -2.13911   -7.23860    4.59539
       H    -0.32157   -7.09785    3.83472
       O    -0.77264   -6.26221    3.95483
      H1    -0.18819   -5.80444    4.66636
       H     1.41824    0.23504    4.00941
       O     2.01526    0.84587    4.44544
      H1     2.83675    0.66509    3.93165
       H    -0.92155   -6.66467    6.73885
       O    -1.72202   -6.61326    7.30994
      H1    -2.17615   -5.78897    7.07946
       H     4.99615   -3.48359    2.27062
       O     4.39923   -3.01002    2.89921
      H1     3.83176   -3.78084    3.10798
       H     4.24626  -10.13650    5.07990
       O     3.43236   -9.86949    4.63047
      H1     3.44444  -10.53852    3.89966
       H     8.46310   -4.96306    2.80661
       O     7.75700   -4.91666    3.51077
      H1     8.10967   -5.61477    4.06395
       H     1.25769   -9.03821    7.49003
       O     0.68478   -8.44193    6.90375
      H1     1.01526   -8.68176    6.02408
       H     6.42204   -2.71324    5.89382
       O     7.28997   -3.14083    5.71339
      H1     6.96125   -3.69594    5.01479
       H     4.42971   -8.32945   -0.30085
       O     3.95288   -8.99239    0.22031
      H1     3.09857   -8.52849    0.47438
       H     7.28477   -6.55376   -0.68473
       O     6.40033   -6.16610   -0.61808
      H1     6.39526   -5.62317    0.18232
       H     2.29021   -5.46830    7.96496
       O     1.43767   -5.93548    7.95696
      H1     1.51642   -6.77461    7.43725
       H    -0.30479   -1.61194    0.96202
       O     0.35033   -2.29537    1.29528
      H1     0.39535   -2.12165    2.25827
       H    -1.37611   -3.87602    2.32040
       O    -1.83178   -3.74015    3.18717
      H1    -1.78211   -4.63328    3.60113
       H     0.08430   -2.46269    8.85837
       O     1.03386   -2.73001    8.93184
      H1     1.30800   -2.45234    8.03439
       H     1.29588   -0.45613    6.65452
       O     1.63006   -1.34414    6.40022
      H1     2.50520   -1.11512    6.12822
       H     2.64855   -3.76786   -0.17442
       O     2.13729   -4.31904    0.45736
      H1     1.39583   -3.67163    0.66307
       H     3.33090   -6.71053    3.87600
       O     3.33759   -7.56261    3.45270
      H1     3.37375   -8.35732    4.09887
       H     0.26776   -8.90308    3.52940
       O     0.86167   -8.36221    4.10716
      H1     1.61010   -8.10404    3.57163
       H     3.29498   -2.06816    1.77792
       O     2.93138   -1.26645    1.35802
      H1     1.99288   -1.57209    1.34037
       H     2.02870   -4.45974    4.54599
       O     2.71680   -4.83245    3.96514
      H1     2.19703   -5.08697    3.19277
       H     1.18543   -7.66075   -0.15606
       O     1.71570   -7.36363    0.64362
      H1     2.10300   -6.58361    0.22476
       H     5.03668   -8.24335    2.50002
       O     5.99208   -8.18465    2.58720
      H1     6.10466   -7.36734    3.11395
       H     3.84111   -2.83116    9.27641
       O     3.97132   -3.54630    8.70958
      H1     4.17354   -4.27221    9.27356
       H     4.05267   -0.64391    2.73638
       O     4.61330   -0.10510    3.32105
      H1     4.60973   -0.72062    4.13465

