90
frame 2 | Written by MDAnalysis XYZWriter (release 2.4.3)
       H     7.27617   -4.02998   -3.57050
       O     6.81604   -4.88606   -3.72238
      H1     6.03064   -4.60567   -4.23746
       H     7.13337   -8.24876   -1.82539
       O     7.80602   -8.69139   -1.21264
      H1     7.14747   -9.15559   -0.70587
       H     6.51432   -4.03124    2.13003
       O     5.78908   -3.82171    1.52115
      H1     6.29122   -3.34716    0.85176
       H     9.61184   -4.28975   -5.25453
       O     9.51836   -5.02291   -4.58902
      H1     8.57030   -5.08943   -4.52831
       H     1.81648   -4.61991   -3.70629
       O     2.74148   -4.24171   -3.69067
      H1     2.78138   -3.76430   -2.81340
       H     4.36168   -2.96353   -0.97129
       O     3.49521   -3.36071   -1.04432
      H1     3.63796   -4.32684   -0.85467
       H     8.03930   -5.95427   -6.88601
       O     7.85631   -5.08304   -7.35558
      H1     8.59515   -4.51942   -7.01302
       H     3.08590   -7.80672   -7.19194
       O     2.65684   -8.15766   -7.95890
      H1     3.25677   -8.81502   -8.37873
       H    10.50679   -6.91460   -1.23367
       O     9.60053   -6.65262   -1.03342
      H1     9.09663   -7.46898   -1.14341
       H     4.09815   -7.97185   -0.16167
       O     4.44767   -8.56060    0.52651
      H1     4.16710   -8.09530    1.29860
       H     3.93274   -4.83268   -4.83024
       O     4.61016   -4.64178   -5.47347
      H1     4.58744   -5.39202   -6.03565
       H     5.74948   -7.67869   -6.09946
       O     4.82391   -7.68382   -6.07010
      H1     4.49843   -8.03216   -5.24427
       H     2.45394   -2.81378   -6.52831
       O     3.25006   -2.37388   -6.17107
      H1     3.71125   -3.16756   -5.77663
       H     7.07549   -6.39414    0.13724
       O     6.54041   -5.84556   -0.45716
      H1     6.19311   -5.14660    0.14709
       H     1.38817   -7.70280   -2.97975
       O     1.88065   -7.61787   -3.75945
      H1     2.61039   -8.16489   -3.48074
       H     5.92890   -6.60326   -3.49882
       O     5.57921   -7.09509   -2.72222
      H1     6.04590   -6.63853   -1.98553
       H     9.37534   -4.93916   -1.48305
       O     9.65576   -4.00000   -1.60521
      H1    10.55211   -4.25793   -1.97426
       H     3.48800  -11.29477   -5.14146
       O     3.50509  -12.25274   -5.14323
      H1     2.61676  -12.41100   -4.78388
       H     7.48575   -1.91752   -0.85311
       O     7.00645   -2.72377   -0.57411
      H1     7.50775   -3.37480   -1.11552
       H     8.22719   -1.38818   -3.55426
       O     8.19153   -2.38309   -3.61723
      H1     8.98809   -2.55265   -3.18121
       H     9.90684   -9.62843   -3.78324
       O     9.31103   -9.18118   -4.39344
      H1     8.56623   -9.68719   -4.02544
       H     2.53010   -6.19452   -1.51712
       O     3.44337   -6.25367   -1.16233
      H1     3.96917   -6.11767   -1.91922
       H     9.13017  -10.00340   -1.35818
       O     9.91707  -10.41055   -1.71191
      H1     9.71870  -11.33688   -1.60875
       H     4.89560   -8.79529   -3.20299
       O     4.24948   -9.36410   -3.66121
      H1     3.98749   -9.91924   -2.91372
       H     6.97717  -10.25782    0.96173
       O     6.32321  -10.53241    0.29434
      H1     5.52535   -9.99057    0.42377
       H     5.88153  -11.00882   -4.26331
       O     6.79088  -10.72802   -4.17972
      H1     7.12068  -11.08337   -5.02104
       H     4.36657  -11.93009   -1.82144
       O     3.64740  -11.29347   -1.82565
      H1     2.92216  -11.81231   -2.17708
       H     6.02845   -7.49758    1.75590
       O     6.93190   -7.60803    2.07683
      H1     7.14785   -6.73307    2.48778
       H     7.58088   -8.63507   -6.80650
       O     7.58190   -7.90256   -6.18094
      H1     8.24196   -8.21237   -5.55538
       H     0.34372   -9.37061   -0.93324
       O     0.58679   -8.57374   -1.49773
      H1    -0.30223   -8.23589   -1.61966

