90
frame 2 | Written by MDAnalysis XYZWriter (release 2.4.3)
       H    -4.40670    5.72940  -18.30941
       O    -3.64799    5.39256  -18.79906
      H1    -3.18811    4.90921  -18.05689
       H    -3.22123    4.07130  -12.46419
       O    -3.92945    3.82807  -13.12475
      H1    -4.40015    3.21523  -12.56201
       H    -3.19426    9.00379  -11.26834
       O    -3.28748    9.89636  -11.57186
      H1    -3.25762   10.38663  -10.70548
       H    -6.60360    5.81030  -15.31336
       O    -7.07691    6.48042  -14.77713
      H1    -7.19273    5.94977  -13.93789
       H    -3.90489    7.40001  -15.41155
       O    -4.62324    8.02501  -15.52475
      H1    -5.42646    7.52385  -15.27557
       H    -6.79242    8.20952  -11.74944
       O    -6.08879    8.40163  -11.11086
      H1    -6.43271    7.95497  -10.31500
       H    -1.64813   11.25566  -19.12575
       O    -1.49873   11.25089  -18.19049
      H1    -2.44671   11.17121  -17.93278
       H    -4.92641   10.66994  -17.35293
       O    -5.35509   11.55338  -17.05102
      H1    -6.28057   11.22011  -16.87369
       H     0.30623    4.28974  -19.37749
       O    -0.46155    4.47871  -18.82065
      H1    -0.41903    3.71300  -18.23544
       H    -9.38559    8.33504  -15.75535
       O    -8.57360    8.14417  -16.26435
      H1    -8.14654    7.45259  -15.69913
       H    -8.05663    9.92289  -16.61258
       O    -8.01290   10.82947  -16.92632
      H1    -8.33093   11.28997  -16.16018
       H    -7.42591    4.42472  -12.36061
       O    -7.00697    5.28559  -12.42902
      H1    -7.63770    5.87012  -12.02775
       H    -3.06999    1.42454  -15.70127
       O    -3.24022    1.44341  -14.71138
      H1    -3.03686    2.40320  -14.46306
       H    -1.41892    7.61956  -18.06244
       O    -1.79161    8.03234  -17.25279
      H1    -1.83700    8.98441  -17.41455
       H    -6.50660    8.60913  -18.92655
       O    -7.35533    8.13724  -19.04040
      H1    -7.76790    8.26510  -18.13549
       H     1.22933    8.21832  -14.92715
       O     2.11223    8.44286  -14.75283
      H1     2.09148    9.29827  -15.17326
       H    -3.87660    6.87917  -12.85807
       O    -3.80325    7.02270  -11.86929
      H1    -4.60562    7.52316  -11.67808
       H    -3.90811   12.75282  -14.54363
       O    -4.11160   13.52737  -15.06531
      H1    -4.52214   13.14941  -15.92017
       H    -0.31000   11.26192  -13.87252
       O    -0.83960   10.50409  -13.50760
      H1    -1.66358   10.91350  -13.23198
       H    -6.60659    5.85275  -17.97939
       O    -5.90858    6.33924  -17.51192
      H1    -6.06082    7.18127  -17.93419
       H    -5.51948    4.67976  -10.94877
       O    -5.12570    4.44336  -10.08773
      H1    -4.27292    4.86441  -10.28789
       H    -6.83899   12.74194  -13.00337
       O    -6.42956   12.01191  -12.48932
      H1    -5.91129   11.42475  -13.10638
       H    -3.93936   10.39122  -13.10084
       O    -4.29559   10.68396  -13.96782
      H1    -4.32117    9.78611  -14.38975
       H    -1.00545    8.05497  -15.59249
       O    -0.59301    7.75237  -14.77679
      H1    -1.01783    8.31960  -14.13943
       H     1.03998    9.45998  -17.61685
       O     0.51987    9.96250  -16.95004
      H1    -0.15346   10.39431  -17.49889
       H    -0.75208    6.82214  -10.69209
       O    -1.00571    6.33292   -9.94301
      H1    -1.87275    6.63876   -9.57955
       H    -4.04037    8.63374  -18.84033
       O    -4.65182    9.10827  -18.17951
      H1    -4.53836    8.62149  -17.38779
       H     0.37518    4.70527  -15.39967
       O    -0.41294    4.86474  -14.87245
      H1    -0.34841    5.80509  -14.77308
       H    -0.69653    3.17759  -15.87428
       O    -0.38197    2.81561  -16.72492
      H1    -1.13683    2.33024  -17.13094
       H    -3.78340    4.89962  -14.69627
       O    -3.48228    5.56854  -15.36244
      H1    -2.51549    5.53264  -15.34741

