90
frame 2 | Written by MDAnalysis XYZWriter (release 2.4.3)
       H   -12.81161    7.46038   14.58465
       O   -12.00910    7.19067   15.02367
      H1   -11.60406    8.01588   15.43665
       H   -15.96046    4.16604   19.07387
       O   -16.18653    3.22905   19.17844
      H1   -16.67815    3.15089   18.33767
       H   -11.91496   -2.07780   16.81943
       O   -12.43904   -1.22619   16.74347
      H1   -11.79677   -0.48906   16.84031
       H   -18.21405    3.55649   16.31306
       O   -17.65759    2.92145   16.81522
      H1   -16.74273    3.23959   16.71285
       H   -10.95639    4.39792   14.26692
       O   -11.00169    5.04322   13.56000
      H1   -11.29845    5.84772   13.96543
       H   -10.05593    5.22504   18.81051
       O   -10.77559    5.10724   18.15082
      H1   -11.16951    4.19186   18.40740
       H   -10.52635    2.54944   16.31345
       O   -10.60996    3.43910   15.90067
      H1   -10.55772    4.01067   16.65695
       H   -14.94967    8.19832   14.12327
       O   -14.52243    7.48611   13.61641
      H1   -15.07140    7.62965   12.74706
       H   -14.37699    2.97045   16.25085
       O   -14.99504    3.70891   16.08679
      H1   -14.69862    4.47525   16.60275
       H   -18.48322    6.93633   18.30874
       O   -17.90151    6.77673   17.54570
      H1   -17.57908    7.72254   17.39461
       H   -15.32672   10.23180   14.74468
       O   -16.04135    9.57476   14.85591
      H1   -16.87907   10.02180   14.61127
       H   -13.48445    8.56614   18.43016
       O   -12.81446    8.09491   17.93128
      H1   -13.25644    7.21320   17.76981
       H   -14.97837    2.08240   19.29068
       O   -14.30380    1.29290   19.25712
      H1   -14.74247    0.76329   19.89567
       H   -17.56046    1.62559   15.36380
       O   -17.28646    1.20435   14.54062
      H1   -16.33313    1.05139   14.59248
       H   -11.19207    7.62397   19.01455
       O   -10.63921    7.99176   19.74191
      H1    -9.79379    7.77709   19.39772
       H   -18.13864    1.59641   17.95083
       O   -18.28309    0.78912   18.53443
      H1   -18.13812    0.05875   17.85905
       H   -17.76843    4.92745   14.76831
       O   -18.44918    5.14770   15.43433
      H1   -18.00648    5.69006   16.10529
       H   -14.24147   -0.75893   13.98888
       O   -14.47519   -1.10360   14.85640
      H1   -13.62796   -1.00431   15.29107
       H   -14.91564    4.49091   10.70398
       O   -15.69996    4.18626   11.13419
      H1   -15.63230    4.54580   12.05761
       H    -9.20427    0.80023   16.15888
       O   -10.14368    0.72802   16.39903
      H1   -10.37203    0.19727   15.60876
       H   -15.16478    5.69137   13.74456
       O   -15.80451    4.92796   13.80224
      H1   -15.48857    4.46512   14.58329
       H   -13.67972    5.32923   18.62622
       O   -13.63202    5.59845   17.69172
      H1   -12.62648    5.46992   17.56281
       H   -15.20338   -2.36367   16.73932
       O   -14.68902   -2.28531   17.53460
      H1   -13.92098   -1.75557   17.30780
       H    -9.91942    9.57506   16.64409
       O   -10.63489    9.11629   16.21442
      H1   -11.17103    8.78885   16.94127
       H   -17.65066   10.84739   17.75075
       O   -18.21318   11.59296   17.82006
      H1   -18.64285   11.68329   16.95110
       H   -12.73703    1.91949   19.29905
       O   -12.00159    2.49281   19.07903
      H1   -11.23346    1.93630   19.34484
       H   -16.61110    5.86773   20.10523
       O   -16.12490    5.99011   19.26589
      H1   -16.84341    6.16155   18.52472
       H   -19.60079   -1.91171   16.83052
       O   -18.73313   -1.45341   16.99038
      H1   -18.08392   -2.16588   16.89235
       H   -12.90507    1.80870   17.45420
       O   -12.99285    1.82425   16.46479
      H1   -12.31255    2.50456   16.25579
       H   -16.34879    9.61628   16.56278
       O   -16.92538    9.38189   17.36024
      H1   -16.30608    9.28835   18.12434

