90
frame 2 | Written by MDAnalysis XYZWriter (release 2.4.3)
       H    16.94532   12.89255    5.06842
       O    17.14651   13.68665    4.55603
      H1    17.49059   14.32478    5.21991
       H    12.38733   15.05778    1.23907
       O    11.96923   14.92950    2.07808
      H1    11.68088   15.84703    2.25951
       H    14.22059   11.22037    5.69331
       O    14.93480   11.77291    5.91583
      H1    14.71459   12.63279    5.44514
       H    16.92884   13.70103    1.46873
       O    17.63043   14.17321    1.94408
      H1    17.50717   13.92305    2.86890
       H    12.02318   17.92540    1.96705
       O    11.42392   17.51488    2.63929
      H1    11.94819   17.50510    3.46517
       H    15.21606   18.02552    0.14955
       O    14.92773   18.18293    1.06103
      H1    15.45756   19.06697    1.17586
       H    17.51898   15.78131   11.98537
       O    17.40760   15.44920   11.07401
      H1    17.38536   16.23159   10.47930
       H    11.78024   16.41860    5.64083
       O    12.23951   17.13206    5.21750
      H1    12.01379   17.86389    5.81737
       H    19.28506   14.22114    6.39937
       O    18.79450   15.05353    6.60201
      H1    19.23922   15.80187    6.26422
       H    13.98636   12.42447    1.99763
       O    14.89753   12.34067    1.63869
      H1    15.38459   11.87665    2.37257
       H    19.62256   18.38051    5.71408
       O    19.55454   17.48643    5.28721
      H1    18.61140   17.35809    5.17600
       H     8.32684   14.03970    5.62817
       O     9.01803   14.45094    5.10990
      H1     9.43766   15.11115    5.70107
       H    11.49798   19.12025    3.28497
       O    12.01347   19.90347    3.50562
      H1    12.66278   19.69793    4.18758
       H    14.09961   14.67768   10.53173
       O    14.41445   15.55890   10.76746
      H1    15.38490   15.40187   10.71525
       H    13.95450   18.63614    8.83275
       O    14.56900   18.94200    8.14395
      H1    15.38123   18.73345    8.54915
       H    16.75888   17.30978    3.75708
       O    16.83589   17.56361    4.70857
      H1    16.10170   17.08600    5.08515
       H    10.05387   15.17812    7.64465
       O    10.75471   15.19182    7.01000
      H1    11.10521   14.29100    7.04383
       H    17.28211   13.53979   10.43612
       O    16.98249   12.61021   10.37866
      H1    17.09265   12.40456    9.44146
       H    11.82419   11.84335    2.46918
       O    12.55549   11.51496    2.98850
      H1    12.64584   10.61885    2.66847
       H    19.67217   18.80514    7.90001
       O    19.68066   19.42708    7.17013
      H1    18.68475   19.45536    7.01829
       H    14.08268   16.70488    5.59149
       O    14.71726   15.97420    5.79926
      H1    14.30197   15.35765    5.17294
       H    13.30794   17.18905   10.28165
       O    12.70146   17.79395    9.75642
      H1    12.24449   17.27357    9.10535
       H    10.60707   19.05521    7.26981
       O    11.62149   18.94190    7.23806
      H1    11.92686   19.84204    7.13047
       H    14.55182   15.04243    7.27951
       O    14.60772   14.30647    7.90019
      H1    14.42283   14.74602    8.72485
       H    14.14793   11.19825    7.94950
       O    13.45480   10.53353    8.25340
      H1    13.40923    9.90068    7.49217
       H    12.48099   12.06970    7.78342
       O    12.43224   12.85138    7.20078
      H1    13.14250   13.38182    7.57982
       H    12.92943   13.31951    5.18985
       O    13.37068   13.99451    4.65597
      H1    12.72907   14.31835    3.98491
       H    16.40115   12.24663    6.93631
       O    17.10494   12.54257    7.58179
      H1    16.79970   13.45496    7.86503
       H    17.93129   16.98993    8.67502
       O    17.15256   16.45645    8.40773
      H1    17.48454   15.94481    7.64264
       H    17.00940   15.87072    2.18575
       O    16.99586   16.83202    2.17195
      H1    16.00943   16.97619    2.02351

