90
frame 2 | Written by MDAnalysis XYZWriter (release 2.4.3)
       H    -7.88604    1.54426    8.21512
       O    -7.63570    1.21637    9.09478
      H1    -8.30564    1.71903    9.58283
       H   -10.24203   -2.06130    8.39707
       O   -10.88031   -1.94968    7.59708
      H1   -10.75586   -2.76758    7.08227
       H    -4.61782    4.35957    8.53052
       O    -3.73283    4.72211    8.35911
      H1    -3.87348    5.65356    8.68648
       H    -5.26698   -3.05446   12.16567
       O    -5.87787   -2.32932   12.47406
      H1    -5.59587   -1.47086   12.05589
       H   -10.78863    1.86012    3.20046
       O   -11.26502    1.70983    4.01177
      H1   -12.17029    1.58503    3.65458
       H   -13.23555   -0.29618   10.31055
       O   -12.82607   -0.58708    9.50727
      H1   -13.45912   -1.24934    9.16314
       H    -6.30950    3.57676   10.80656
       O    -5.71905    3.04096   10.23832
      H1    -6.39713    2.50122    9.77570
       H   -10.14218    5.20221    8.98456
       O    -9.56830    5.93080    9.16042
      H1    -9.39414    5.78113   10.17646
       H   -11.66712    3.21047    7.80731
       O   -11.18572    4.05923    7.80704
      H1   -10.66004    3.96294    7.03539
       H    -7.51145    2.78873    6.05783
       O    -8.05073    2.11756    6.52750
      H1    -8.29306    1.52142    5.80139
       H    -4.29870    1.15854    8.17165
       O    -4.77187    1.45006    7.39594
      H1    -4.92308    0.60170    6.99866
       H   -12.87989    0.62190    8.23118
       O   -12.86184    1.37369    7.65150
      H1   -12.68712    0.86932    6.84215
       H    -7.86879    4.61735    5.10449
       O    -7.05502    4.50931    5.64402
      H1    -6.40997    4.86504    5.05375
       H   -10.88716    1.06836   13.49212
       O   -10.69788    0.12579   13.75170
      H1    -9.93282   -0.04671   13.18170
       H    -6.49627    2.44542    3.35114
       O    -7.13441    1.95963    2.77747
      H1    -7.66576    1.43757    3.39487
       H    -9.22217    6.27685   12.50235
       O    -8.75317    5.78880   11.77310
      H1    -8.60686    4.92288   12.17916
       H   -11.75668    0.29713    5.26090
       O   -12.39271   -0.23162    5.71232
      H1   -11.80220   -0.60943    6.39935
       H    -8.70298    2.48866   12.48222
       O    -8.61394    2.40847   11.50707
      H1    -9.55153    2.51565   11.30548
       H    -6.17276   -1.94521    9.20180
       O    -6.61469   -1.63392    8.41842
      H1    -7.15482   -0.83923    8.62047
       H    -9.21573   -1.23363   10.89387
       O    -9.29219   -1.28194    9.93218
      H1    -9.45594   -0.37097    9.71793
       H    -7.01153    5.80175    7.25298
       O    -7.20923    6.56510    7.80264
      H1    -8.03215    6.27709    8.19727
       H    -7.80760   -2.91170    9.63843
       O    -7.80487   -3.63523   10.26752
      H1    -7.66471   -3.20812   11.10649
       H    -5.73963    1.03055   11.99125
       O    -5.74067    0.15468   11.59227
      H1    -6.20884    0.45379   10.77324
       H   -10.45756    3.56393    4.50562
       O    -9.85612    4.03304    5.09199
      H1    -9.94454    4.94023    4.93108
       H    -8.18387   -1.71947   13.19629
       O    -8.44387   -0.97820   12.62738
      H1    -7.72911   -0.32671   12.56534
       H   -12.37225    2.71100   12.06977
       O   -11.44303    2.89065   12.25134
      H1   -11.45171    3.87600   12.41080
       H    -6.68073   -0.41712    4.93046
       O    -5.85897   -0.39771    5.43750
      H1    -6.16016   -0.89533    6.19117
       H    -9.49444    0.48144    4.06996
       O    -8.63005    0.15313    4.39466
      H1    -8.62346   -0.72869    4.00415
       H    -2.61553    2.37229    9.85262
       O    -3.31745    1.73148   10.00810
      H1    -4.12969    2.30328   10.11624
       H    -4.93531    2.57963    5.33928
       O    -4.71492    2.50063    4.42469
      H1    -4.10712    3.26858    4.29366

