90
frame 2 | Written by MDAnalysis XYZWriter (release 2.4.3)
       H    -7.96979  -11.85322    8.51049
       O    -7.23813  -12.48601    8.44711
      H1    -6.65584  -12.13636    9.10513
       H    -9.84933  -11.02472    9.94469
       O    -9.39652  -10.65059    9.17079
      H1   -10.01087  -10.11417    8.69986
       H    -3.50886  -11.99296    6.86441
       O    -3.70943  -11.72100    5.92582
      H1    -3.36899  -10.81377    5.94293
       H    -8.23484  -11.30543   13.79032
       O    -8.08698  -10.35380   13.95227
      H1    -7.58502  -10.10491   13.14948
       H    -5.03408  -15.59941    9.42413
       O    -5.99481  -15.81689    9.44357
      H1    -6.26280  -15.57808    8.52774
       H    -7.22216  -10.41230    2.97752
       O    -6.69883  -11.20981    3.05791
      H1    -6.60946  -11.15287    4.03837
       H    -6.87425  -13.41598   10.71515
       O    -7.15857  -14.17120   11.22000
      H1    -6.74147  -14.90508   10.67178
       H    -6.50854  -14.16327   13.07555
       O    -5.79561  -14.58646   13.64271
      H1    -6.31636  -15.33360   13.89516
       H    -6.66808   -8.29889   11.77544
       O    -6.41046   -9.21032   12.01580
      H1    -5.48587   -9.17724   12.29660
       H    -6.68755   -8.28400    7.01260
       O    -7.42562   -7.64721    6.94227
      H1    -8.08046   -7.88956    7.62016
       H    -4.69255   -9.41913    9.00600
       O    -5.56030   -9.30155    8.59939
      H1    -5.92185  -10.03494    9.18900
       H    -2.94418  -10.67320   12.42321
       O    -2.92626  -11.12749   11.57838
      H1    -3.09232  -10.40478   10.96414
       H   -12.46771  -11.78500   11.19625
       O   -11.89107  -12.46969   10.87184
      H1   -12.42460  -13.21714   10.88344
       H    -3.25615  -13.00623    9.22178
       O    -3.88623  -12.81890    8.52860
      H1    -3.91626  -13.70131    8.08596
       H   -10.47800  -15.31200    9.97830
       O   -10.75445  -16.00523    9.37015
      H1   -11.40185  -15.48039    8.82578
       H    -7.57202  -14.22716    7.06307
       O    -7.19217  -15.13182    7.01681
      H1    -7.98363  -15.69638    7.21898
       H    -9.61712  -10.83110    3.31129
       O    -9.80335  -11.73337    3.00252
      H1    -9.65071  -12.25433    3.77323
       H    -6.37879  -15.83413    5.38632
       O    -5.99144  -16.23104    4.59044
      H1    -6.82909  -16.60709    4.19113
       H    -9.87754  -16.63993    8.17499
       O    -9.32120  -16.88437    7.42268
      H1    -9.80761  -17.61414    7.04392
       H   -10.81014  -13.08691    5.54514
       O   -11.68942  -13.00641    5.94189
      H1   -12.24437  -12.89476    5.18677
       H    -8.00394  -12.76984    5.30631
       O    -8.84446  -13.20953    5.55863
      H1    -8.75096  -14.09541    5.13073
       H    -9.59881   -8.57911    9.78455
       O    -9.43817   -7.91280    9.11306
      H1   -10.32729   -7.61309    8.81882
       H    -2.59016  -15.40670    6.84330
       O    -3.56773  -15.27633    6.87869
      H1    -3.92441  -16.17913    6.65923
       H    -9.65978  -13.26982   13.95878
       O    -8.68597  -13.17710   13.81901
      H1    -8.49608  -13.72416   13.02747
       H    -5.39543  -11.42993    5.81019
       O    -6.35839  -11.37957    5.85178
      H1    -6.49100  -11.48812    6.80185
       H   -10.22141  -13.66740   10.71838
       O    -9.94151  -14.41565   11.28857
      H1    -8.96859  -14.46269   11.11356
       H    -4.25997  -13.06272    4.56791
       O    -4.05220  -13.49854    3.71246
      H1    -4.76170  -14.10559    3.57851
       H   -11.61326  -10.54901    7.41537
       O   -11.71812   -9.80678    7.95093
      H1   -12.60165   -9.89033    8.32523
       H    -5.56797   -7.44624    9.43743
       O    -5.70537   -6.46715    9.33998
      H1    -5.04715   -5.99723    9.85183
       H    -4.96400  -11.37416   11.17965
       O    -5.85195  -11.50613   10.74483
      H1    -6.32394  -10.69543   10.99184

