90
frame 2 | Written by MDAnalysis XYZWriter (release 2.4.3)
       H    16.86457   -6.96818  -16.38583
       O    15.99026   -7.27183  -16.10048
      H1    15.99432   -8.20354  -16.36120
       H    15.17758   -9.56803  -12.97796
       O    14.79351   -9.29677  -13.84140
      H1    14.98872   -8.32808  -13.78008
       H    10.22845   -6.44496  -18.22252
       O    11.06288   -6.91995  -18.35243
      H1    10.71693   -7.66386  -18.84786
       H    11.74635   -2.06513  -14.43337
       O    11.34091   -2.88068  -14.17305
      H1    10.95823   -3.25212  -14.99238
       H    11.43684  -13.46364  -15.23924
       O    12.20130  -13.79598  -15.71817
      H1    12.67356  -14.14911  -14.97672
       H     3.24785   -7.29571  -18.62628
       O     4.08584   -7.68196  -18.38206
      H1     4.71481   -7.20686  -18.92147
       H    12.11922   -7.92734  -17.41180
       O    12.81015   -8.24512  -16.76677
      H1    12.37199   -9.00206  -16.27812
       H    12.44903   -2.36043  -18.08262
       O    12.33106   -2.08504  -17.17500
      H1    11.38106   -1.69661  -17.19888
       H     9.31936   -9.16468  -14.71621
       O     8.75191   -8.70899  -15.34413
      H1     8.97345   -7.76962  -15.21808
       H    11.24651   -6.05819  -15.08472
       O    10.31755   -6.12526  -14.88792
      H1    10.35046   -5.66563  -14.01023
       H     8.90478   -9.29359  -16.81039
       O     9.03206   -9.82080  -17.66691
      H1     8.15874  -10.22898  -17.65384
       H    14.96799   -9.80833  -17.81186
       O    15.83821   -9.44766  -17.92920
      H1    16.44637  -10.16920  -17.56804
       H    12.64230   -3.91448  -16.40070
       O    12.63607   -4.84023  -16.13469
      H1    12.99677   -5.30320  -16.92397
       H     9.71127   -4.85865  -15.77225
       O     9.18086   -4.25437  -16.31935
      H1     8.36655   -4.15725  -15.73013
       H     5.68126   -8.72963  -13.02699
       O     6.55190   -9.06259  -13.23109
      H1     6.78407   -8.51872  -14.04971
       H    15.20823   -6.15185  -14.00551
       O    15.72774   -6.67242  -13.39566
      H1    16.54535   -6.20552  -13.29553
       H    10.48308  -12.15450  -15.64595
       O     9.80503  -12.68152  -15.19450
      H1     9.24207  -12.02943  -14.80911
       H     6.55590  -10.20815  -18.86771
       O     6.49470  -10.82861  -18.12577
      H1     5.88062  -10.46025  -17.48041
       H    14.70881   -5.05447  -15.74374
       O    15.52951   -4.76177  -15.34001
      H1    16.13500   -5.44795  -15.61779
       H    15.91259  -10.19859  -15.18231
       O    16.59297  -10.75463  -15.65373
      H1    17.21367  -10.89187  -14.92460
       H    12.17411  -10.76988  -16.63906
       O    11.35975  -10.62627  -16.14065
      H1    10.69812  -10.43254  -16.81900
       H     9.42978   -5.66428  -11.84996
       O    10.27508   -5.62241  -12.26209
      H1    10.58439   -6.53197  -12.11258
       H     7.98190   -5.77063  -18.41431
       O     8.81565   -5.39103  -18.70569
      H1     9.02294   -4.76370  -17.96074
       H     6.45440   -3.45280  -14.64477
       O     7.10606   -4.17140  -14.46861
      H1     7.78787   -3.71389  -13.97322
       H     7.01454  -10.73977  -13.74343
       O     7.32131  -11.48717  -14.27842
      H1     7.18025  -12.14187  -13.52962
       H     6.11171   -6.55460  -16.97560
       O     6.93599   -6.92030  -17.26392
      H1     6.75623   -7.89314  -17.14132
       H    10.84339  -10.28423  -14.57880
       O    10.44674  -10.03998  -13.71160
      H1    11.06748   -9.42331  -13.27544
       H    13.43459  -12.85755  -17.23244
       O    13.40603  -12.20451  -17.97212
      H1    14.29997  -12.42891  -18.34986
       H    13.02622   -6.84913  -18.64036
       O    13.76645   -6.24073  -18.28964
      H1    14.15784   -6.96735  -17.70829
       H     8.97687   -1.20393  -16.53761
       O     9.75588   -1.55728  -16.99288
      H1     9.59211   -2.51695  -16.77822

