90
frame 2 | Written by MDAnalysis XYZWriter (release 2.4.3)
       H   -12.93687  -17.31246   -6.66248
       O   -13.68996  -16.69771   -6.43534
      H1   -13.27049  -16.46874   -5.54430
       H   -10.15865  -14.19363    1.49992
       O   -10.80465  -13.54171    1.25818
      H1   -10.57014  -12.64081    1.54031
       H   -13.91206  -18.08446    5.82357
       O   -13.99610  -17.78218    6.71415
      H1   -13.64519  -16.91603    6.70283
       H   -10.16889  -15.77301    4.24385
       O    -9.22696  -15.52359    4.31187
      H1    -9.04993  -15.01718    3.50209
       H   -11.89311  -13.21681   -3.23515
       O   -12.16570  -13.59099   -4.10538
      H1   -11.85184  -14.50167   -4.05220
       H    -9.01241  -13.57105   -1.57456
       O    -8.65295  -14.47810   -1.45781
      H1    -9.19080  -14.76991   -0.68627
       H   -14.91729  -18.51143    3.90138
       O   -13.99627  -18.67365    4.13751
      H1   -14.00924  -19.48363    4.68615
       H   -17.49008  -13.46321   -1.91745
       O   -17.11445  -13.63941   -1.03807
      H1   -17.89186  -14.07780   -0.61258
       H   -12.71741  -10.75245   -0.85026
       O   -13.06037  -11.34788   -0.16221
      H1   -13.64763  -11.92216   -0.68837
       H   -12.13068  -17.06748    4.60156
       O   -11.53872  -16.50699    5.18321
      H1   -10.87043  -17.18318    5.38540
       H    -9.69339  -15.33421   -2.66047
       O   -10.30878  -15.63708   -3.35919
      H1    -9.79807  -15.57667   -4.21736
       H   -14.24966  -13.95850    0.42681
       O   -14.52103  -13.79276   -0.47301
      H1   -15.48673  -13.76253   -0.44641
       H   -17.21990  -17.53292   -2.54570
       O   -18.06424  -17.78239   -2.91265
      H1   -17.79483  -18.72108   -3.17983
       H   -11.35776  -12.36838   -1.07386
       O   -11.03033  -12.48744   -1.97779
      H1   -10.13204  -12.10875   -1.99681
       H    -8.74789  -18.15743    2.38892
       O    -8.19985  -17.38197    2.60730
      H1    -8.73265  -16.94189    3.26059
       H   -14.28454  -14.79558    3.47299
       O   -14.77598  -15.15309    4.25505
      H1   -14.08647  -15.05590    4.98772
       H   -14.84893  -14.83595   -3.57591
       O   -14.55972  -15.57607   -2.97635
      H1   -14.24677  -15.10840   -2.16523
       H   -15.56010  -16.33267   -1.86464
       O   -16.23884  -16.41025   -1.15566
      H1   -16.57598  -15.48882   -1.15993
       H   -14.71156  -17.52274   -0.12587
       O   -13.97251  -18.06973   -0.11446
      H1   -13.90754  -18.30664   -1.06270
       H   -17.81663  -18.47867    3.32532
       O   -18.39555  -19.17451    2.94365
      H1   -18.01602  -19.50988    2.14830
       H   -12.71396  -17.17502    0.97767
       O   -11.91250  -17.02290    1.58644
      H1   -11.61678  -17.90539    1.71990
       H   -10.27124  -16.49781    0.92582
       O    -9.44069  -16.05516    0.74421
      H1    -8.88848  -16.43374    1.50729
       H   -19.67650  -14.52290    0.62178
       O   -19.04166  -15.21308    0.50473
      H1   -19.17021  -15.70874    1.30562
       H   -13.21016  -18.33838   -3.12127
       O   -13.46858  -19.18460   -2.80003
      H1   -14.28742  -19.39774   -3.28734
       H   -15.92101  -16.50962    4.25797
       O   -16.54465  -17.26543    4.13428
      H1   -16.85112  -17.26214    5.04604
       H   -12.41441  -13.93477    1.78729
       O   -13.37573  -13.84820    2.03991
      H1   -13.28112  -12.98134    2.52888
       H   -18.02385  -15.69416    4.01997
       O   -18.81916  -15.36689    3.56571
      H1   -19.52875  -15.59123    4.25358
       H   -18.04101  -17.73899   -4.77393
       O   -17.98645  -17.52583   -5.72015
      H1   -17.01469  -17.45617   -5.87188
       H   -13.33790  -16.33282   -3.56533
       O   -12.65154  -16.91866   -3.99808
      H1   -11.88188  -16.52051   -3.51305
       H    -9.47690  -18.78863   -4.03612
       O    -9.15128  -18.39680   -3.22512
      H1    -9.45327  -17.48576   -3.33206

