90
frame 2 | Written by MDAnalysis XYZWriter (release 2.4.3)
       H    13.20646   -8.38918   -7.54509
       O    13.90279   -8.41103   -8.24822
      H1    14.42733   -7.62470   -8.15771
       H    17.00394   -6.25945   -4.28483
       O    17.29967   -6.82119   -3.58205
      H1    18.02555   -6.27114   -3.21260
       H    14.20874   -4.40778   -4.39765
       O    14.03943   -4.81678   -5.24901
      H1    13.28256   -5.41547   -5.08125
       H    18.42719   -5.31101  -13.90004
       O    18.16442   -5.36814  -12.95556
      H1    17.55683   -4.52629  -12.91354
       H    13.67578   -8.61447   -4.51623
       O    13.92242   -9.04935   -3.68619
      H1    13.29252   -9.76881   -3.51172
       H    13.91737   -5.01179   -9.45546
       O    13.56760   -4.10257   -9.45568
      H1    12.55501   -4.24845   -9.58185
       H    16.97625   -1.13388  -10.68913
       O    17.73429   -1.57720  -11.03970
      H1    17.74449   -2.27043  -10.32670
       H    16.18900   -6.48303   -7.37440
       O    15.82507   -6.57436   -6.45091
      H1    15.42102   -5.72159   -6.16504
       H    19.16379   -3.72956   -6.19811
       O    18.37212   -4.07534   -6.63841
      H1    17.78599   -3.44892   -6.14678
       H    17.90215   -3.47084   -1.89672
       O    17.08095   -3.01933   -1.53966
      H1    16.99532   -2.20423   -2.08392
       H    19.73249   -9.62134   -5.70116
       O    19.47058   -8.99535   -5.03898
      H1    18.50289   -9.10271   -4.97156
       H    17.23627  -12.81485   -7.64500
       O    17.87289  -12.07811   -7.87656
      H1    18.21803  -12.45487   -8.68498
       H    18.01260   -0.53442   -6.91181
       O    17.77887   -1.48774   -6.69623
      H1    17.18129   -1.67621   -7.41978
       H    15.69125   -5.84036   -9.86150
       O    16.10431   -5.53151   -9.05309
      H1    16.96095   -5.28689   -9.33618
       H    18.73953   -3.70017   -8.47523
       O    18.36330   -3.80040   -9.34386
      H1    19.25963   -3.70958   -9.72113
       H    16.75199   -9.67749   -6.83985
       O    16.89447   -9.15137   -6.01763
      H1    16.33135   -8.40666   -6.08954
       H    18.81016   -7.39076   -8.41004
       O    18.42120   -7.84898   -9.27030
      H1    18.80878   -7.27704   -9.92868
       H    15.27096   -2.66135   -7.74713
       O    15.87973   -2.21572   -8.32161
      H1    16.34029   -3.09550   -8.66558
       H    17.27684  -10.76166   -8.69411
       O    16.70341   -9.97214   -8.83863
      H1    17.47316   -9.30332   -9.01466
       H    13.52784   -3.57703   -6.37108
       O    13.50977   -2.91355   -7.04040
      H1    13.56182   -3.45947   -7.84281
       H    19.05777   -6.28290   -6.56069
       O    19.46119   -7.07792   -6.92093
      H1    19.41327   -7.72023   -6.15760
       H    15.87539   -5.53987   -2.47054
       O    15.26256   -4.79000   -2.54339
      H1    15.76919   -4.10501   -2.15729
       H    19.88482   -4.62233   -2.37143
       O    18.97882   -4.88649   -2.04267
      H1    19.13110   -5.19702   -1.14760
       H    18.15371   -9.46580   -1.17242
       O    18.02493   -8.57726   -0.72929
      H1    17.89659   -8.07845   -1.58183
       H    16.36794   -9.91062   -4.57066
       O    16.24969  -10.36488   -3.69503
      H1    15.35991  -10.05309   -3.40461
       H    15.69513   -1.55577   -4.11812
       O    16.19897   -2.18778   -4.62564
      H1    16.62425   -1.73945   -5.31125
       H    18.93317  -10.30702   -3.11833
       O    18.49833  -10.62361   -2.28106
      H1    17.55835  -10.60871   -2.58391
       H    19.29675   -1.63970   -9.26354
       O    19.70021   -1.09276   -8.52317
      H1    19.15992   -1.45423   -7.78657
       H    15.82524   -9.84679  -10.30080
       O    15.15111   -9.61521  -10.95639
      H1    14.38652  -10.03698  -10.66243
       H    14.79160   -6.82419  -11.61367
       O    14.18592   -6.80340  -10.85060
      H1    14.30378   -7.70599  -10.42196

