90
frame 2 | Written by MDAnalysis XYZWriter (release 2.4.3)
       H     7.87317  -15.94323    4.92365
       O     8.24281  -15.34368    5.63384
      H1     9.09190  -15.02881    5.27373
       H     6.47816  -18.93026    6.97331
       O     5.87556  -18.20369    6.71444
      H1     6.34912  -17.80254    5.92317
       H     9.74708  -16.80847    7.64095
       O     8.80020  -17.07618    7.65574
      H1     8.35604  -16.40600    7.01650
       H     1.49984  -14.34417    6.84339
       O     0.76163  -14.00833    7.39121
      H1     0.20578  -13.69825    6.67207
       H    -1.07059  -16.26805    8.38436
       O    -1.11858  -16.39297    7.43793
      H1    -0.40925  -15.83528    7.13758
       H     5.12318  -11.03018    7.51282
       O     4.54802  -11.46128    8.14323
      H1     3.82721  -10.83690    8.20065
       H     0.94454  -18.96724   10.69360
       O     0.42542  -18.25494   11.12477
      H1    -0.33341  -18.80224   11.35026
       H    -0.67828  -17.92144    6.24870
       O    -0.44595  -18.91409    6.20326
      H1    -0.56986  -19.05516    5.25350
       H     1.46927  -12.19495    2.43543
       O     0.80620  -12.76140    1.96251
      H1     0.37560  -12.16790    1.40011
       H     4.04647  -20.02493    4.56534
       O     3.70465  -19.44578    5.33427
      H1     4.46837  -19.26710    5.93686
       H     4.74561  -17.53192    7.82373
       O     4.05228  -17.61462    8.53122
      H1     4.63596  -17.75861    9.35932
       H     3.78311  -17.92715    4.41888
       O     3.89853  -16.95978    4.27542
      H1     3.78285  -16.69568    5.20374
       H    -1.89730  -16.32178   10.59016
       O    -1.08731  -15.85050   10.89101
      H1    -0.50116  -16.64727   10.91344
       H     7.93668  -13.05170    7.15184
       O     8.23725  -12.40181    6.43785
      H1     8.06186  -12.85534    5.64038
       H     4.80081  -15.87388    0.91055
       O     5.01251  -16.03023    1.83872
      H1     4.23446  -16.43678    2.22382
       H    -0.83986  -13.81510    4.60325
       O    -0.30323  -13.18267    5.13784
      H1     0.35148  -12.93437    4.53347
       H     5.15262  -13.07330    2.56281
       O     4.65509  -12.37003    2.05130
      H1     5.20080  -12.13033    1.31197
       H     4.56038  -13.85994   11.27237
       O     3.87919  -13.23559   10.87342
      H1     3.89064  -13.39784    9.93935
       H     7.09185  -15.44236   11.24938
       O     6.24267  -15.01546   11.48858
      H1     6.15432  -15.24370   12.43619
       H     6.22868  -14.68946    4.45003
       O     6.45269  -14.30061    3.56120
      H1     5.86635  -14.81322    3.01064
       H    -2.59016  -15.40670    6.84330
       O    -3.56773  -15.27633    6.87869
      H1    -3.92441  -16.17913    6.65923
       H     5.94601  -17.07838    3.60948
       O     6.71359  -17.36123    4.08994
      H1     7.16015  -17.88816    3.43739
       H     2.49263  -19.04771    8.00450
       O     1.55884  -19.31921    8.19755
      H1     1.04750  -19.22321    7.36883
       H     3.15444  -16.46488    7.49460
       O     3.19768  -15.76810    6.83149
      H1     3.96795  -15.25890    7.08453
       H    -0.11547  -12.21525    9.50958
       O     0.32868  -11.53876    8.89822
      H1     0.82319  -12.15567    8.33877
       H     5.11333  -18.03897   11.48128
       O     5.60187  -17.64085   10.80002
      H1     5.53503  -16.67390   11.03828
       H     2.39904  -17.91730    2.30500
       O     1.46237  -17.57432    2.32866
      H1     1.35804  -17.43440    3.28082
       H     2.45565  -14.71340   13.29686
       O     2.91770  -15.13596   12.53978
      H1     3.04405  -14.37034   11.96484
       H    -1.92812  -16.22053    4.11286
       O    -1.58703  -15.33565    3.86006
      H1    -2.39071  -14.79033    3.98954
       H     6.62939  -14.24428    9.21933
       O     6.22322  -14.03902    8.37840
      H1     5.80203  -13.17701    8.48063

