90
frame 2 | Written by MDAnalysis XYZWriter (release 2.4.3)
       H     1.47851   -1.55974    5.07735
       O     0.87731   -1.54847    4.26601
      H1     0.07863   -1.48167    4.71865
       H     7.01859    2.16374   -3.68449
       O     6.08004    2.34506   -3.60671
      H1     5.69555    1.49113   -3.83581
       H    -0.57564   -0.86733   -0.48751
       O    -1.23822   -1.39547   -0.08089
      H1    -1.94059   -0.71216    0.06362
       H    -2.24860    3.81554   -4.25278
       O    -1.40608    3.32453   -4.25627
      H1    -0.85953    3.97737   -3.73995
       H    -3.49233    0.03619   -5.18778
       O    -3.04515   -0.69237   -4.72633
      H1    -2.13873   -0.36467   -4.64113
       H     0.35275   -4.82599   -1.18908
       O     0.17176   -5.21928   -2.04348
      H1    -0.51573   -5.89168   -1.80099
       H    -3.04480    0.25837   -2.86866
       O    -3.71907    0.20973   -2.14838
      H1    -3.20839    0.35080   -1.32314
       H    -0.83805    5.59677   -2.66774
       O    -0.05745    5.15018   -3.08365
      H1     0.56583    5.08533   -2.34508
       H     1.22861    0.08964    4.00776
       O     1.58628    0.95072    4.13561
      H1     2.45452    0.95108    3.65573
       H     1.81648   -4.61991   -3.70629
       O     2.74148   -4.24171   -3.69067
      H1     2.78138   -3.76430   -2.81340
       H     4.36168   -2.96353   -0.97129
       O     3.49521   -3.36071   -1.04432
      H1     3.63796   -4.32684   -0.85467
       H     6.55150    1.77181   -0.20589
       O     5.82793    2.13392   -0.78119
      H1     6.11579    1.98371   -1.73575
       H     5.31635   -0.62753   -2.99435
       O     4.94812   -0.26445   -3.81818
      H1     4.04429   -0.45310   -3.58736
       H     1.53906    2.62825    3.60055
       O     1.88810    3.46893    3.20072
      H1     1.76483    3.19953    2.24953
       H    -0.03365   -1.61896    1.08497
       O     0.86144   -1.90205    1.43243
      H1     0.70603   -1.83706    2.35818
       H     1.87341    4.53761   -0.70035
       O     1.17900    5.13262   -0.38036
      H1     1.52206    5.55889    0.43532
       H     1.97757    2.47613   -0.10259
       O     1.69136    2.07281    0.75536
      H1     1.31294    1.29405    0.38734
       H    -3.54379    3.25673   -0.97276
       O    -3.31066    3.41398   -0.03569
      H1    -2.77244    4.24652   -0.11873
       H    -2.11691    1.00915    3.52135
       O    -2.88960    0.44445    3.30173
      H1    -3.53138    1.09740    3.78645
       H     2.28243   -4.31059    1.28675
       O     1.39569   -4.53792    0.94742
      H1     0.92188   -3.71698    0.84381
       H     1.18920   -1.55588   -4.18212
       O     1.96248   -0.94044   -4.28262
      H1     2.38674   -1.23427   -5.12095
       H    -0.12187   -3.60987   -3.49692
       O    -0.42008   -2.85455   -3.98782
      H1    -0.05670   -2.95450   -4.87742
       H     3.51242   -1.73721    1.90022
       O     3.23044   -0.87127    1.52232
      H1     2.29189   -0.91402    1.61105
       H     0.17090    0.20406   -3.74201
       O    -0.57522    0.61166   -3.33374
      H1    -0.66895    1.42351   -3.79141
       H     3.91222    4.20977   -1.17081
       O     3.21187    3.56070   -1.10075
      H1     3.77692    3.00318   -0.54245
       H     3.77198   -0.14161   -0.33518
       O     3.90619    0.33654   -1.11318
      H1     4.52704    1.00241   -0.81752
       H    -3.21677    0.74238    1.34490
       O    -3.14643    0.84838    0.42466
      H1    -2.91399    1.81757    0.35583
       H     0.78818    0.87222   -1.53788
       O     0.97858    0.14135   -1.01438
      H1     1.81381   -0.13344   -1.38088
       H     4.35230   -0.25483    2.79542
       O     4.84397    0.18690    3.52218
      H1     5.07475   -0.60308    3.98211
       H    -1.78020   -3.11485   -2.63518
       O    -2.40202   -3.01690   -1.92053
      H1    -2.04802   -2.25815   -1.42069

