90
frame 2 | Written by MDAnalysis XYZWriter (release 2.4.3)
       H    -7.88604    1.54426    8.21512
       O    -7.63570    1.21637    9.09478
      H1    -8.30564    1.71903    9.58283
       H    -2.97809   -3.27120    9.78161
       O    -3.94496   -3.36737    9.82675
      H1    -3.97512   -3.25352    8.87506
       H   -10.24203   -2.06130    8.39707
       O   -10.88031   -1.94968    7.59708
      H1   -10.75586   -2.76758    7.08227
       H    -1.00531   -0.56100    7.83605
       O    -1.34332   -1.21354    8.50978
      H1    -1.56410   -0.60260    9.22584
       H    -6.30950    3.57676   10.80656
       O    -5.71905    3.04096   10.23832
      H1    -6.39713    2.50122    9.77570
       H    -7.51145    2.78873    6.05783
       O    -8.05073    2.11756    6.52750
      H1    -8.29306    1.52142    5.80139
       H    -4.89730   -1.71128    2.51549
       O    -4.76625   -2.33324    1.78417
      H1    -5.53852   -2.16499    1.29398
       H    -4.29870    1.15854    8.17165
       O    -4.77187    1.45006    7.39594
      H1    -4.92308    0.60170    6.99866
       H    -9.07752   -2.68625    3.83615
       O    -8.43703   -2.20293    3.29374
      H1    -8.05751   -2.93246    2.75524
       H    -7.86879    4.61735    5.10449
       O    -7.05502    4.50931    5.64402
      H1    -6.40997    4.86504    5.05375
       H    -6.49627    2.44542    3.35114
       O    -7.13441    1.95963    2.77747
      H1    -7.66576    1.43757    3.39487
       H    -9.92096   -1.10211    1.59717
       O    -9.51874   -0.67611    0.79345
      H1    -8.57666   -0.64962    0.98648
       H    -4.37551   -4.25043    2.42300
       O    -4.72814   -5.14843    2.19413
      H1    -4.33482   -5.63763    2.95167
       H    -2.55149   -1.37065    5.35526
       O    -1.81148   -1.98861    5.41239
      H1    -2.03701   -2.57680    4.70714
       H    -6.17276   -1.94521    9.20180
       O    -6.61469   -1.63392    8.41842
      H1    -7.15482   -0.83923    8.62047
       H    -9.21573   -1.23363   10.89387
       O    -9.29219   -1.28194    9.93218
      H1    -9.45594   -0.37097    9.71793
       H    -7.80760   -2.91170    9.63843
       O    -7.80487   -3.63523   10.26752
      H1    -7.66471   -3.20812   11.10649
       H    -2.16198   -3.55259    2.48188
       O    -2.23450   -3.89621    3.33560
      H1    -1.67660   -4.70872    3.39396
       H    -5.73963    1.03055   11.99125
       O    -5.74067    0.15468   11.59227
      H1    -6.20884    0.45379   10.77324
       H    -2.11691    1.00915    3.52135
       O    -2.88960    0.44445    3.30173
      H1    -3.53138    1.09740    3.78645
       H   -10.45264   -4.40506    5.29373
       O   -10.02860   -4.01968    6.03092
      H1    -9.15087   -4.43405    6.01056
       H    -7.28736   -4.46005    8.18199
       O    -7.53964   -4.69680    7.24616
      H1    -7.69014   -5.64629    7.31190
       H    -5.10341   -5.88316    7.84080
       O    -4.84715   -5.25335    7.15923
      H1    -5.73607   -4.87851    6.98076
       H    -6.68073   -0.41712    4.93046
       O    -5.85897   -0.39771    5.43750
      H1    -6.16016   -0.89533    6.19117
       H    -3.31877   -4.11754    7.13281
       O    -2.36752   -4.01576    7.46795
      H1    -2.10535   -3.24917    6.94386
       H    -5.01440    0.76952    0.26230
       O    -5.94923    1.03929    0.21969
      H1    -6.15443    1.17149    1.14524
       H    -3.21677    0.74238    1.34490
       O    -3.14643    0.84838    0.42466
      H1    -2.91399    1.81757    0.35583
       H    -9.49444    0.48144    4.06996
       O    -8.63005    0.15313    4.39466
      H1    -8.62346   -0.72869    4.00415
       H    -2.61553    2.37229    9.85262
       O    -3.31745    1.73148   10.00810
      H1    -4.12969    2.30328   10.11624
       H    -4.93531    2.57963    5.33928
       O    -4.71492    2.50063    4.42469
      H1    -4.10712    3.26858    4.29366

