90
frame 2 | Written by MDAnalysis XYZWriter (release 2.4.3)
       H     3.41789  -10.85136   16.92293
       O     3.65820   -9.96820   17.18678
      H1     3.38912   -9.98880   18.09333
       H    -1.00867  -12.68310   17.80155
       O    -0.10127  -12.31374   17.89349
      H1    -0.26220  -11.63793   17.19550
       H     4.46831  -10.68565   11.60477
       O     3.59308  -10.26534   11.66394
      H1     3.05381  -10.96167   11.27756
       H    -0.92929   -8.66485   16.09473
       O    -1.15217   -7.72312   16.36324
      H1    -0.85212   -7.21003   15.57032
       H     0.23828   -9.74635   10.00506
       O     0.53763   -9.21726   10.81098
      H1     0.76432   -9.94576   11.40927
       H     7.20593   -8.85280   18.61627
       O     6.30596   -8.96048   18.92483
      H1     5.87015   -9.62797   18.39519
       H     5.33460   -5.22982   18.74123
       O     4.99846   -5.39257   17.87425
      H1     5.16612   -4.60323   17.31426
       H     0.83564   -6.97549   16.94957
       O     1.76593   -6.87719   17.03511
      H1     2.02142   -7.66538   16.43313
       H     5.59046  -11.62628   12.47275
       O     6.23060  -11.59990   11.68059
      H1     5.97757  -12.48216   11.27624
       H     6.14772   -6.38723   16.64989
       O     6.89206   -6.41873   15.97912
      H1     7.03288   -7.38838   16.07262
       H     6.90650   -8.31884   11.69616
       O     6.83038   -7.90729   12.59964
      H1     5.82128   -7.79407   12.67031
       H     2.96336  -13.15576   18.04429
       O     2.55080  -13.01964   17.18300
      H1     1.59161  -12.94562   17.40565
       H     2.23532  -11.95571   13.43554
       O     2.56783  -12.10429   14.32581
      H1     2.19754  -12.94804   14.55298
       H     0.62663   -7.09701   12.32056
       O     1.48685   -6.96698   11.88646
      H1     1.52517   -7.62791   11.18034
       H     2.65432   -9.40795   15.85635
       O     2.08003   -8.92887   15.27242
      H1     2.71182   -8.58715   14.62821
       H     5.56480   -8.28153   15.20001
       O     5.76977   -9.06611   15.72738
      H1     5.05702   -9.07476   16.34693
       H     3.33515   -7.30600   13.26485
       O     4.00683   -7.96558   13.41835
      H1     3.74445   -8.64337   12.80779
       H     1.04526   -9.49380   19.42421
       O     0.51003   -9.03923   18.75631
      H1     1.00876   -8.29500   18.48304
       H     5.20859  -13.48316   19.53624
       O     5.10711  -12.62541   19.05462
      H1     5.45764  -12.14765   19.84016
       H    -0.29822   -4.81663   18.20381
       O    -0.19544   -5.70413   18.64376
      H1    -0.91780   -6.16906   18.25608
       H     0.69961  -12.69338   11.49387
       O     0.66117  -11.76052   11.76890
      H1    -0.22822  -11.69400   12.10054
       H     0.51459   -6.04214   14.60655
       O    -0.43021   -5.97348   14.44749
      H1    -0.64213   -5.02400   14.53158
       H    -2.61750  -12.24701   15.04526
       O    -1.90625  -12.05282   14.36152
      H1    -1.57316  -12.94983   14.12022
       H     2.65400   -5.90169   15.45457
       O     2.36730   -5.74828   14.52754
      H1     2.69413   -4.85928   14.30009
       H     6.51313  -12.28715   18.12511
       O     7.24090  -12.14396   17.50001
      H1     8.03997  -12.46259   18.04349
       H    -0.73757  -10.85501   15.30131
       O    -0.25981  -10.28902   15.91672
      H1     0.57346  -10.11872   15.53951
       H     7.33851   -9.41442   14.98017
       O     8.23919   -9.21378   14.58701
      H1     8.05464   -8.71533   13.78205
       H     4.23770  -11.72926   14.47541
       O     5.20841  -11.50772   14.31917
      H1     5.30457  -10.62856   14.75728
       H     1.74499   -4.80552   17.96030
       O     2.48260   -4.41720   18.42017
      H1     3.27578   -4.79085   17.91619
       H     6.22403  -13.61673   16.05053
       O     5.93957  -13.97744   15.21111
      H1     5.85014  -13.08012   14.77385

