90
frame 2 | Written by MDAnalysis XYZWriter (release 2.4.3)
       H    -3.92690  -12.78400  -15.85205
       O    -4.69427  -13.22758  -16.25870
      H1    -5.22256  -12.48727  -16.57529
       H    -5.60396  -13.46772  -14.79335
       O    -5.87225  -13.66541  -13.86524
      H1    -6.73273  -13.16320  -13.88912
       H    -2.15333  -11.89501  -16.12711
       O    -2.48223  -11.72280  -15.25668
      H1    -2.18799  -12.44771  -14.66322
       H    -2.25240  -11.68453  -18.52351
       O    -1.68269  -11.76569  -17.77979
      H1    -1.13721  -12.53241  -18.05683
       H    -8.21402  -11.64093  -13.63476
       O    -8.03045  -12.36411  -14.29449
      H1    -7.82797  -11.91531  -15.12704
       H    -2.28137  -15.99525  -15.24453
       O    -1.31626  -16.18524  -15.46913
      H1    -0.94219  -16.09536  -14.59261
       H     0.06750  -17.73685  -17.43960
       O    -0.25514  -17.83651  -18.34550
      H1    -0.99631  -18.47060  -18.23595
       H     0.37731  -14.41987  -17.09562
       O     0.68553  -14.65771  -16.17649
      H1    -0.12959  -15.06536  -15.90316
       H    -5.70188  -18.06633  -10.92113
       O    -5.96334  -18.68010  -10.24919
      H1    -5.12222  -19.01791   -9.88842
       H    -6.04851  -18.16149  -16.05138
       O    -5.10986  -18.03017  -16.14931
      H1    -4.80164  -18.04490  -15.21868
       H     1.22645  -16.11205  -14.18545
       O     0.65761  -15.88669  -13.42111
      H1     0.76480  -14.90930  -13.30710
       H    -9.11220  -16.04432  -17.31500
       O    -8.54150  -15.54873  -16.72132
      H1    -8.92582  -14.69454  -16.71478
       H    -4.10701  -15.43994  -13.34051
       O    -3.39860  -15.83880  -13.83643
      H1    -3.40520  -16.68026  -13.41730
       H    -2.44353  -14.37438  -13.12373
       O    -2.57169  -13.41645  -12.94219
      H1    -1.70016  -13.33220  -12.52152
       H    -9.53978  -12.74557  -15.27601
       O    -9.96155  -13.00854  -16.11177
      H1   -10.78570  -13.41739  -15.84847
       H    -5.22269  -13.45411  -11.32363
       O    -4.29487  -13.15820  -11.00502
      H1    -3.87734  -13.25469  -11.89146
       H    -7.11560  -14.94781  -12.98687
       O    -7.89433  -15.15596  -12.42489
      H1    -8.37079  -15.73159  -13.04844
       H   -10.88648  -19.36826  -15.66623
       O    -9.97675  -19.13724  -15.33832
      H1   -10.12190  -18.26145  -15.04172
       H     1.52973  -18.92594  -15.96854
       O     1.57376  -17.98656  -15.79730
      H1     0.61120  -17.85604  -15.55017
       H    -4.54042  -14.73298  -17.14060
       O    -4.34261  -15.67639  -17.39322
      H1    -4.61035  -16.19817  -16.59209
       H    -6.14859  -10.54665  -16.41658
       O    -6.81920  -11.32137  -16.35147
      H1    -7.19031  -11.46962  -17.21025
       H     0.54010  -14.24265  -19.09645
       O     0.49724  -13.30288  -18.72618
      H1     0.35155  -12.83093  -19.54755
       H    -8.80659  -17.78347  -12.65343
       O    -8.66747  -18.51056  -12.03238
      H1    -8.84894  -17.97070  -11.25384
       H    -1.54677  -17.85842  -15.57979
       O    -1.59767  -18.82734  -15.66085
      H1    -1.33657  -19.12612  -14.73317
       H    -0.93826  -16.01419  -18.28541
       O    -1.56597  -15.25573  -18.36624
      H1    -2.47036  -15.56447  -18.04934
       H    -6.99993  -17.55929  -19.76967
       O    -6.37093  -16.93096  -19.46264
      H1    -6.70113  -16.78730  -18.57826
       H   -10.67525  -16.67861  -19.33933
       O   -10.02833  -16.88682  -18.60536
      H1    -9.64246  -17.70891  -18.87217
       H    -4.07963  -17.78227  -19.02855
       O    -3.48223  -18.19388  -19.66683
      H1    -2.98244  -18.80815  -19.10065
       H    -9.16660  -16.12903  -15.15967
       O    -9.34610  -16.56612  -14.28115
      H1   -10.09027  -16.01226  -14.08175
       H    -3.20368  -19.60895  -12.98346
       O    -3.17673  -18.62623  -12.98259
      H1    -2.26433  -18.44410  -12.75317

