90
frame 2 | Written by MDAnalysis XYZWriter (release 2.4.3)
       H     0.45997   12.30419   12.39165
       O     0.65872   11.99879   11.52590
      H1     1.37937   11.42452   11.67363
       H     2.88450    9.85646   12.42218
       O     3.01993   10.77843   12.62049
      H1     2.70311   10.73085   13.53171
       H     3.23583   12.85497   13.21257
       O     3.52711   13.71784   12.94553
      H1     4.29021   13.47842   12.42395
       H     4.05553    8.32028    9.45328
       O     3.92833    8.61940   10.36993
      H1     4.01862    7.88956   10.97266
       H    -0.97144   11.00154    5.45928
       O    -1.28833   10.38588    4.80650
      H1    -0.54970   10.22243    4.17623
       H    -1.29338   12.24151    8.79651
       O    -1.46308   12.18593    9.75948
      H1    -0.50339   12.04429   10.13090
       H     3.78227    5.92487   11.74122
       O     4.08735    6.68747   12.23684
      H1     3.33950    6.89291   12.78936
       H     2.20601   14.78628    5.74675
       O     1.48377   14.10435    5.93269
      H1     0.84834   14.32594    5.20734
       H     0.01812   11.68437    7.60352
       O    -0.65425   12.19491    7.11589
      H1    -0.08356   12.94402    6.79740
       H    -2.15477    7.54900   10.45372
       O    -1.21543    7.31366   10.74285
      H1    -0.84243    7.29928    9.81843
       H     7.06126    9.68613    9.65713
       O     6.41644   10.35934    9.72178
      H1     5.58931    9.75809    9.89230
       H     3.17607   12.20607    7.87222
       O     2.54492   11.49898    8.01996
      H1     2.82490   10.93766    7.24565
       H    -2.21919   13.79700    9.59051
       O    -2.59869   14.60373    9.97404
      H1    -2.58745   15.32962    9.32376
       H     5.51860   12.90663    7.19356
       O     4.59616   13.18732    7.26746
      H1     4.31202   13.57079    6.40363
       H     3.69939    6.15004    4.87704
       O     3.04001    6.56827    4.31164
      H1     2.32268    6.72230    4.98296
       H     1.20253   13.54058   10.74729
       O     1.55781   14.18637   10.12829
      H1     0.91290   14.17966    9.41209
       H     6.10415   10.59105    6.50441
       O     5.62567    9.80204    6.48931
      H1     6.26746    9.08742    6.30119
       H     4.34928    8.76221    4.94914
       O     4.43482    8.71114    3.98805
      H1     3.97071    7.88700    3.77336
       H     0.43658    7.23414    7.44412
       O    -0.09412    6.41108    7.74106
      H1    -0.99921    6.70739    7.52105
       H     5.29276    8.05485    7.65636
       O     4.38210    7.79460    7.93168
      H1     4.51755    6.94589    8.39263
       H    -0.18574   16.19726    8.21368
       O    -0.14207   15.24088    7.92658
      H1     0.63641   15.24504    7.27467
       H     8.11077   11.46710   11.50861
       O     7.53979   12.18150   11.07564
      H1     6.86818   11.64102   10.60770
       H    -2.70623   11.04237    9.25234
       O    -3.01750   10.29737    8.67752
      H1    -3.80330   10.73989    8.41330
       H     4.64582   13.88168    8.92556
       O     4.29162   14.42466    9.69296
      H1     3.35678   14.18934    9.71656
       H    -2.28022    8.95060    7.82497
       O    -2.08730    8.15715    7.23384
      H1    -1.85476    8.65925    6.47999
       H     0.64182    7.52057   11.51359
       O     1.36203    7.65052   12.19270
      H1     0.97844    7.37786   12.99096
       H     2.60745    8.12633    7.09281
       O     1.75724    8.12788    6.54324
      H1     1.85265    8.92512    6.06197
       H     5.10111   10.13730   12.34909
       O     5.98106    9.85650   12.68626
      H1     6.11431   10.58668   13.27671
       H     1.81802   10.90160    4.41324
       O     1.59817   10.56236    5.28756
      H1     0.82583   11.04918    5.51898
       H     2.29168    9.20380    9.98137
       O     1.44717    9.71349    9.66133
      H1     1.89535   10.21070    8.90555

