90
frame 2 | Written by MDAnalysis XYZWriter (release 2.4.3)
       H   -16.26198   15.70608    2.92543
       O   -16.29250   14.84068    2.60601
      H1   -17.12243   14.62978    2.26137
       H   -17.39716   15.58193   -2.48110
       O   -17.53362   15.13066   -3.31569
      H1   -16.99882   14.34494   -3.16462
       H   -12.41175   18.49508   -3.27644
       O   -12.20570   17.54081   -3.31294
      H1   -12.20112   17.32794   -2.37866
       H   -13.68621   20.21436   -9.00839
       O   -14.56626   19.88312   -8.72107
      H1   -14.62464   18.98335   -9.19270
       H   -15.31779   16.97791   -9.61324
       O   -14.45239   17.36241   -9.72717
      H1   -14.24390   17.20189  -10.68502
       H   -16.54159   16.85417   -6.06408
       O   -16.13296   16.09435   -5.67213
      H1   -16.93225   15.78259   -5.15718
       H   -17.25978   19.18131   -7.11590
       O   -17.32417   18.52008   -6.40727
      H1   -18.19312   18.64113   -5.94903
       H   -12.98175   18.60357    3.18201
       O   -12.59545   18.11727    2.43212
      H1   -11.74067   18.66018    2.36573
       H   -12.06786   13.39845   -3.21590
       O   -11.17084   13.50265   -2.84209
      H1   -11.07129   12.60626   -2.43796
       H   -18.83684   17.74044   -2.35514
       O   -17.92220   17.51337   -1.94675
      H1   -18.04832   18.06776   -1.13082
       H   -13.85715   18.10629    1.12880
       O   -14.42991   18.23908    0.34166
      H1   -14.34571   19.19366    0.29359
       H   -10.97360   16.90352   -6.31421
       O   -10.13688   17.28302   -5.97703
      H1   -10.15039   16.90752   -5.10013
       H   -12.53801   15.80429   -7.84104
       O   -12.23394   16.65733   -7.55331
      H1   -12.96097   16.88291   -6.89904
       H   -19.58953   13.09394   -0.42861
       O   -18.96414   13.59034    0.18316
      H1   -18.25268   13.07276   -0.11184
       H   -15.41793   16.34334   -3.47754
       O   -14.58248   16.02948   -3.07663
      H1   -13.98594   16.68720   -3.42888
       H   -16.34750   14.98145   -8.15233
       O   -16.66730   14.60219   -8.99301
      H1   -17.52439   15.07644   -9.04990
       H   -15.57891   12.68398   -0.90045
       O   -16.10215   12.89769   -0.10823
      H1   -15.62557   13.73654    0.06963
       H   -10.52163   15.01301   -3.63135
       O   -10.07543   15.87517   -3.70033
      H1   -10.89729   16.39279   -3.53917
       H   -17.59781   17.50814  -10.75048
       O   -17.40546   17.31936   -9.87378
      H1   -17.86185   18.02813   -9.43646
       H   -14.84931   16.56301   -0.19644
       O   -14.95531   15.59495   -0.34261
      H1   -14.92980   15.52755   -1.34444
       H   -11.12966   14.04304   -1.04877
       O   -10.94359   14.39120   -0.17903
      H1   -11.23274   15.30887   -0.29152
       H   -12.85699   13.50554   -6.28226
       O   -12.58424   13.51083   -7.23660
      H1   -11.65923   13.93526   -7.15014
       H   -16.71378   18.99119   -4.26918
       O   -16.32508   19.15293   -3.38855
      H1   -16.85714   18.46322   -2.86912
       H   -17.99797   17.24952    4.42860
       O   -17.16701   17.48049    3.93925
      H1   -17.39956   18.33382    3.56299
       H   -14.28896   19.28169   -6.95142
       O   -13.99166   18.63331   -6.29284
      H1   -14.87109   18.30055   -6.01992
       H   -17.84651   17.47762    1.03453
       O   -17.22050   18.19393    1.11611
      H1   -16.43234   17.68342    1.37092
       H   -13.67037   14.61209    0.61917
       O   -13.14930   14.07753    1.27409
      H1   -12.33531   14.08609    0.75856
       H   -16.91037   12.08150   -3.62739
       O   -16.14513   12.63923   -3.67439
      H1   -15.71255   12.16146   -4.38511
       H   -13.05810   17.08691   -0.60869
       O   -12.17263   16.77771   -0.76206
      H1   -11.74239   17.57626   -0.46037
       H   -13.87283   14.72284   -4.17869
       O   -13.48272   13.88983   -4.58827
      H1   -14.26294   13.34211   -4.63182

