90
frame 2 | Written by MDAnalysis XYZWriter (release 2.4.3)
       H    -4.08590    8.01031    9.59521
       O    -3.55405    7.25887    9.30348
      H1    -3.03236    7.72367    8.59570
       H    -3.02495   15.56368    6.57205
       O    -2.21953   15.04297    6.33934
      H1    -1.49835   15.33641    6.97469
       H     0.45997   12.30419   12.39165
       O     0.65872   11.99879   11.52590
      H1     1.37937   11.42452   11.67363
       H    -3.79762   11.16924   12.58933
       O    -2.98790   11.59878   12.71505
      H1    -2.54352   11.62421   11.85357
       H    -0.97144   11.00154    5.45928
       O    -1.28833   10.38588    4.80650
      H1    -0.54970   10.22243    4.17623
       H    -1.29338   12.24151    8.79651
       O    -1.46308   12.18593    9.75948
      H1    -0.50339   12.04429   10.13090
       H    -3.20138   13.56051    5.74295
       O    -3.94928   12.98066    5.43573
      H1    -4.17513   12.55354    6.27901
       H     1.40044   11.49324    2.22702
       O     1.70970   10.61143    2.45466
      H1     1.06077   10.04780    2.00627
       H    -0.18779   13.76351    3.18391
       O    -0.54962   13.91331    4.08568
      H1    -1.42706   14.30087    3.91267
       H     2.20601   14.78628    5.74675
       O     1.48377   14.10435    5.93269
      H1     0.84834   14.32594    5.20734
       H     0.01812   11.68437    7.60352
       O    -0.65425   12.19491    7.11589
      H1    -0.08356   12.94402    6.79740
       H    -3.32089   15.76638    3.24522
       O    -2.84747   14.92694    3.01245
      H1    -3.14232   14.85472    2.06846
       H     3.17607   12.20607    7.87222
       O     2.54492   11.49898    8.01996
      H1     2.82490   10.93766    7.24565
       H    -6.08846   11.28759    7.75314
       O    -5.24972   11.79775    7.58521
      H1    -5.71000   12.70109    7.57499
       H    -4.70674   12.59664    9.53461
       O    -5.05065   12.20626   10.33911
      H1    -4.90790   12.87032   11.07084
       H    -2.21919   13.79700    9.59051
       O    -2.59869   14.60373    9.97404
      H1    -2.58745   15.32962    9.32376
       H     5.51860   12.90663    7.19356
       O     4.59616   13.18732    7.26746
      H1     4.31202   13.57079    6.40363
       H    -5.56282   11.99696    4.85253
       O    -6.38313   11.67199    4.53872
      H1    -6.86094   11.84507    5.31404
       H     1.20253   13.54058   10.74729
       O     1.55781   14.18637   10.12829
      H1     0.91290   14.17966    9.41209
       H    -1.90013   15.16309   11.52178
       O    -1.44257   15.27962   12.41392
      H1    -2.14801   15.31625   13.03638
       H     0.43658    7.23414    7.44412
       O    -0.09412    6.41108    7.74106
      H1    -0.99921    6.70739    7.52105
       H    -0.18574   16.19726    8.21368
       O    -0.14207   15.24088    7.92658
      H1     0.63641   15.24504    7.27467
       H    -2.70623   11.04237    9.25234
       O    -3.01750   10.29737    8.67752
      H1    -3.80330   10.73989    8.41330
       H     4.64582   13.88168    8.92556
       O     4.29162   14.42466    9.69296
      H1     3.35678   14.18934    9.71656
       H    -2.28022    8.95060    7.82497
       O    -2.08730    8.15715    7.23384
      H1    -1.85476    8.65925    6.47999
       H    -0.94450   16.45794    3.87066
       O    -0.51721   16.96111    4.57450
      H1    -1.29233   17.21067    5.06207
       H     2.60745    8.12633    7.09281
       O     1.75724    8.12788    6.54324
      H1     1.85265    8.92512    6.06197
       H     1.81802   10.90160    4.41324
       O     1.59817   10.56236    5.28756
      H1     0.82583   11.04918    5.51898
       H    -3.47472   12.10396    4.06962
       O    -3.38046   11.34037    3.49903
      H1    -2.76165   10.87831    4.08489
       H     2.29168    9.20380    9.98137
       O     1.44717    9.71349    9.66133
      H1     1.89535   10.21070    8.90555

