90
frame 2 | Written by MDAnalysis XYZWriter (release 2.4.3)
       H     5.75037  -14.09187   -3.68605
       O     4.78836  -13.95436   -3.32411
      H1     4.48781  -13.37109   -4.05959
       H     0.82427  -13.11102   -3.82948
       O     1.70843  -13.36458   -3.49973
      H1     1.59613  -14.25649   -3.12425
       H    -2.34904  -15.52083   -9.83598
       O    -1.70609  -14.86484  -10.19690
      H1    -2.28330  -14.08532  -10.13685
       H     2.48245  -15.80751   -9.88967
       O     1.71945  -15.90789   -9.31909
      H1     1.94601  -15.53787   -8.45100
       H     5.70292  -17.39619   -9.48253
       O     5.60031  -17.58433  -10.38318
      H1     4.99750  -16.86351  -10.60413
       H    -0.89217  -11.05916   -8.33866
       O    -1.57491  -11.19536   -9.02048
      H1    -2.05818  -11.97060   -8.67244
       H     2.42474  -18.96529   -4.93719
       O     1.69887  -19.61097   -4.87247
      H1     1.15160  -19.44960   -5.63301
       H     2.35060  -13.45988  -12.22101
       O     3.23897  -13.16776  -12.42912
      H1     3.17023  -12.89858  -13.35586
       H    -1.13366  -17.05119   -3.54948
       O    -0.72510  -16.19868   -3.83867
      H1    -1.29758  -15.52273   -3.48994
       H     4.27987  -15.02352  -11.78579
       O     3.91978  -15.73538  -11.26638
      H1     3.56673  -16.24960  -12.01571
       H     3.98880  -13.55616   -9.04605
       O     3.53371  -12.78505   -8.66159
      H1     4.18029  -12.39510   -8.04939
       H     0.80771  -17.98809   -2.43476
       O     1.56373  -17.50852   -2.18268
      H1     1.83148  -17.05202   -3.05970
       H     1.22645  -16.11205  -14.18545
       O     0.65761  -15.88669  -13.42111
      H1     0.76480  -14.90930  -13.30710
       H     2.17299  -10.50032  -10.50084
       O     1.50880   -9.80754  -10.62329
      H1     2.02971   -9.00000  -10.66522
       H     2.41195  -14.10682   -6.81042
       O     2.01928  -14.97368   -6.73248
      H1     1.00836  -14.85928   -6.79067
       H    -1.23234  -12.50397   -5.64806
       O    -0.39254  -12.32410   -5.16760
      H1    -0.35836  -11.37363   -5.04535
       H     6.78508  -13.59946   -7.37474
       O     6.55746  -14.56962   -7.71743
      H1     6.37917  -14.98163   -6.83315
       H    -0.22635  -17.95052   -9.17191
       O    -0.93483  -17.57430   -8.53817
      H1    -0.60926  -16.68415   -8.37559
       H    -2.97019  -12.61085   -6.75279
       O    -2.43461  -13.15189   -7.34127
      H1    -3.13359  -13.71081   -7.64151
       H     3.48800  -11.29477   -5.14146
       O     3.50509  -12.25274   -5.14323
      H1     2.61676  -12.41100   -4.78388
       H     3.67326  -15.42624   -4.01291
       O     3.13500  -16.11634   -4.45923
      H1     2.66660  -15.64951   -5.15525
       H     2.23768  -18.49390  -11.60022
       O     3.12738  -18.69334  -11.88540
      H1     3.69159  -18.74161  -11.13503
       H     0.21167  -19.03250  -11.48422
       O     0.42500  -18.33896  -10.88939
      H1     0.15038  -17.54500  -11.35164
       H     0.44297  -12.36379  -12.26461
       O     0.33533  -13.33495  -12.15007
      H1     0.09380  -13.36977  -11.20546
       H    -0.95252  -15.68314   -5.93795
       O    -0.59549  -15.40572   -6.78778
      H1    -1.22506  -14.76709   -7.19445
       H     4.72663  -10.24834  -10.03160
       O     4.41145  -10.17327   -9.06804
      H1     3.97277  -11.02898   -9.02608
       H     6.24873  -17.20569   -6.26289
       O     6.03849  -16.46325   -5.68682
      H1     5.16509  -16.73960   -5.35273
       H     6.45337  -13.10184  -10.83916
       O     5.88213  -13.84145  -10.57647
      H1     5.98322  -13.81442   -9.61541
       H    -3.79805  -17.59611   -8.65190
       O    -3.58913  -17.15064   -9.47322
      H1    -2.63272  -17.21072   -9.45814
       H    -0.51154  -18.60410   -7.36768
       O    -0.18597  -19.45426   -6.90269
      H1     0.26286  -19.83879   -7.70433

