90
frame 2 | Written by MDAnalysis XYZWriter (release 2.4.3)
       H   -11.91496   -2.07780   16.81943
       O   -12.43904   -1.22619   16.74347
      H1   -11.79677   -0.48906   16.84031
       H    -6.47170   -5.33673   16.89620
       O    -6.31702   -5.02402   16.02767
      H1    -7.24053   -4.77256   15.90736
       H   -18.61434   -5.95066   16.33430
       O   -18.96212   -6.49607   17.05922
      H1   -18.73678   -7.38831   16.75743
       H   -11.81542   -4.10285   15.38191
       O   -11.27424   -3.96151   16.19776
      H1   -11.85246   -4.36943   16.84936
       H    -8.84944   -7.94545   13.79672
       O    -9.00967   -6.97323   13.97310
      H1    -9.88147   -7.06708   14.37423
       H    -8.01863   -4.47257   18.92536
       O    -7.08207   -4.69991   18.87070
      H1    -6.83903   -4.89390   19.76772
       H    -9.93261   -1.46602   19.71251
       O   -10.39756   -2.21940   19.34051
      H1   -11.33839   -2.12480   19.44947
       H    -7.53124   -7.82556   16.56242
       O    -8.03585   -7.07004   16.63879
      H1    -8.28843   -6.87393   15.70968
       H    -9.45193   -7.86450   17.00507
       O   -10.37793   -8.13731   17.20619
      H1   -10.24154   -9.10301   17.41317
       H    -9.07972   -4.29673   13.81094
       O    -8.82641   -3.78719   14.60155
      H1    -9.68035   -3.64172   14.99099
       H   -18.44173   -5.04064   14.20353
       O   -18.42298   -4.39473   15.01123
      H1   -17.54679   -4.00415   15.06884
       H   -14.24147   -0.75893   13.98888
       O   -14.47519   -1.10360   14.85640
      H1   -13.62796   -1.00431   15.29107
       H   -14.33418   -5.56395   17.54285
       O   -13.36716   -5.52397   17.60304
      H1   -13.13024   -6.45760   17.70066
       H   -15.63149   -6.51376   12.23579
       O   -15.34768   -6.88784   13.07472
      H1   -15.03305   -6.04249   13.47749
       H   -15.20587   -8.72020   15.76571
       O   -14.83330   -9.40284   16.34671
      H1   -14.53794  -10.08857   15.78177
       H   -13.69073   -8.55756   17.28916
       O   -13.02500   -8.18855   17.92341
      H1   -12.22717   -8.18386   17.40898
       H   -11.88814   -8.06116   14.30512
       O   -11.63074   -7.32188   14.85023
      H1   -11.13780   -7.72400   15.60002
       H   -15.37555   -3.30188   12.86251
       O   -15.02746   -3.09199   11.98182
      H1   -14.10353   -3.38851   11.97281
       H   -12.97182   -5.96552   14.75462
       O   -13.50870   -5.22495   14.94394
      H1   -13.44568   -5.30408   15.90213
       H   -12.98441  -10.18680   13.11069
       O   -12.30570  -10.04974   13.81999
      H1   -12.42968  -10.84705   14.37941
       H   -17.48223  -11.23149   15.01998
       O   -17.95789  -10.38131   14.71847
      H1   -17.37147   -9.59691   14.95832
       H   -16.60616   -3.84703   18.24446
       O   -17.46736   -3.70526   17.81053
      H1   -18.06165   -4.14151   18.40423
       H   -15.72656   -2.43486   14.79052
       O   -16.01694   -3.34076   14.90290
      H1   -15.16375   -3.80083   15.19855
       H   -16.31504   -7.10596   17.89260
       O   -15.96472   -6.39597   17.31680
      H1   -16.71162   -5.76364   17.39268
       H   -15.20338   -2.36367   16.73932
       O   -14.68902   -2.28531   17.53460
      H1   -13.92098   -1.75557   17.30780
       H    -9.41048  -10.82507   18.49279
       O   -10.25502  -11.02130   18.07469
      H1   -10.92805  -11.17781   18.78777
       H   -16.25383   -7.36287   15.69819
       O   -16.84295   -7.82357   15.07712
      H1   -16.46633   -7.49015   14.25820
       H    -8.96410   -4.65486   11.11440
       O    -9.65406   -4.68177   11.78556
      H1    -9.60112   -5.62316   12.11240
       H    -9.93799   -4.18346   17.87906
       O    -9.69511   -4.84547   18.46966
      H1    -9.37361   -5.51865   17.85991
       H   -19.60079   -1.91171   16.83052
       O   -18.73313   -1.45341   16.99038
      H1   -18.08392   -2.16588   16.89235

