90
frame 2 | Written by MDAnalysis XYZWriter (release 2.4.3)
       H   -15.11075  -10.12453   11.58168
       O   -14.19494  -10.03276   11.83500
      H1   -14.15915   -9.07705   11.96411
       H   -11.91496   -2.07780   16.81943
       O   -12.43904   -1.22619   16.74347
      H1   -11.79677   -0.48906   16.84031
       H    -8.23484  -11.30543   13.79032
       O    -8.08698  -10.35380   13.95227
      H1    -7.58502  -10.10491   13.14948
       H    -8.50864   -7.05156   10.41171
       O    -7.78866   -7.02916   11.06450
      H1    -6.98629   -6.69890   10.51525
       H    -6.47170   -5.33673   16.89620
       O    -6.31702   -5.02402   16.02767
      H1    -7.24053   -4.77256   15.90736
       H   -13.57847  -12.46337   16.15412
       O   -13.70877  -12.12114   15.23420
      H1   -14.10207  -12.93041   14.78036
       H   -11.81542   -4.10285   15.38191
       O   -11.27424   -3.96151   16.19776
      H1   -11.85246   -4.36943   16.84936
       H    -8.84944   -7.94545   13.79672
       O    -9.00967   -6.97323   13.97310
      H1    -9.88147   -7.06708   14.37423
       H    -7.53124   -7.82556   16.56242
       O    -8.03585   -7.07004   16.63879
      H1    -8.28843   -6.87393   15.70968
       H    -6.25256   -9.60090   16.82549
       O    -6.34326   -9.09423   16.05245
      H1    -6.59960   -9.65989   15.28224
       H    -9.45193   -7.86450   17.00507
       O   -10.37793   -8.13731   17.20619
      H1   -10.24154   -9.10301   17.41317
       H   -12.60656   -5.64813   10.23748
       O   -13.19871   -6.33378   10.08896
      H1   -13.17187   -6.54177    9.13334
       H    -9.07972   -4.29673   13.81094
       O    -8.82641   -3.78719   14.60155
      H1    -9.68035   -3.64172   14.99099
       H   -14.33418   -5.56395   17.54285
       O   -13.36716   -5.52397   17.60304
      H1   -13.13024   -6.45760   17.70066
       H    -6.30580   -5.56994   13.89196
       O    -6.19972   -5.29827   12.96963
      H1    -6.96312   -5.79578   12.64081
       H   -15.63149   -6.51376   12.23579
       O   -15.34768   -6.88784   13.07472
      H1   -15.03305   -6.04249   13.47749
       H   -15.20587   -8.72020   15.76571
       O   -14.83330   -9.40284   16.34671
      H1   -14.53794  -10.08857   15.78177
       H   -13.69073   -8.55756   17.28916
       O   -13.02500   -8.18855   17.92341
      H1   -12.22717   -8.18386   17.40898
       H   -11.88814   -8.06116   14.30512
       O   -11.63074   -7.32188   14.85023
      H1   -11.13780   -7.72400   15.60002
       H   -15.37555   -3.30188   12.86251
       O   -15.02746   -3.09199   11.98182
      H1   -14.10353   -3.38851   11.97281
       H   -12.97182   -5.96552   14.75462
       O   -13.50870   -5.22495   14.94394
      H1   -13.44568   -5.30408   15.90213
       H   -12.98441  -10.18680   13.11069
       O   -12.30570  -10.04974   13.81999
      H1   -12.42968  -10.84705   14.37941
       H    -9.59881   -8.57911    9.78455
       O    -9.43817   -7.91280    9.11306
      H1   -10.32729   -7.61309    8.81882
       H   -12.04974   -2.64279   10.76381
       O   -12.13716   -3.55254   11.16087
      H1   -11.22686   -3.70964   11.25830
       H   -15.72656   -2.43486   14.79052
       O   -16.01694   -3.34076   14.90290
      H1   -15.16375   -3.80083   15.19855
       H   -16.31504   -7.10596   17.89260
       O   -15.96472   -6.39597   17.31680
      H1   -16.71162   -5.76364   17.39268
       H    -9.41048  -10.82507   18.49279
       O   -10.25502  -11.02130   18.07469
      H1   -10.92805  -11.17781   18.78777
       H   -16.25383   -7.36287   15.69819
       O   -16.84295   -7.82357   15.07712
      H1   -16.46633   -7.49015   14.25820
       H    -8.96410   -4.65486   11.11440
       O    -9.65406   -4.68177   11.78556
      H1    -9.60112   -5.62316   12.11240
       H    -9.93799   -4.18346   17.87906
       O    -9.69511   -4.84547   18.46966
      H1    -9.37361   -5.51865   17.85991

