90
frame 2 | Written by MDAnalysis XYZWriter (release 2.4.3)
       H    -1.09646   14.30506   -2.09480
       O    -1.71663   14.04325   -1.40053
      H1    -1.60855   14.81134   -0.81613
       H    -1.97464   20.05573   -0.65451
       O    -1.28919   19.50155   -0.25851
      H1    -1.53262   18.62598   -0.52880
       H    -0.56547   12.69127   -1.03627
       O    -0.02206   11.96707   -0.77267
      H1     0.43456   11.77457   -1.58144
       H    -4.71220   18.54332    2.80327
       O    -4.35687   17.77937    3.21033
      H1    -3.51447   17.92313    2.72149
       H     3.40538   15.02439   -2.18301
       O     4.13468   15.65391   -2.29041
      H1     3.67020   16.52108   -2.35011
       H     1.76169   17.88397   -0.75602
       O     1.58956   18.20227    0.13366
      H1     0.63868   18.17272    0.16498
       H     4.37680   13.93884    1.58110
       O     3.57771   13.71237    2.03280
      H1     3.84822   14.22449    2.82929
       H    -0.18779   13.76351    3.18391
       O    -0.54962   13.91331    4.08568
      H1    -1.42706   14.30087    3.91267
       H    -2.40657   16.70028   -0.14191
       O    -1.42207   16.75814   -0.30729
      H1    -1.23993   16.86609   -1.26952
       H    -3.78077   18.29181   -4.27731
       O    -3.74988   19.28754   -4.33244
      H1    -3.83621   19.45550   -3.38255
       H     1.99076   13.60415   -1.35991
       O     1.35550   14.29137   -1.17212
      H1     0.80595   13.98917   -0.42512
       H     2.20601   14.78628    5.74675
       O     1.48377   14.10435    5.93269
      H1     0.84834   14.32594    5.20734
       H     0.60120   14.35724   -2.86600
       O     0.00877   14.51227   -3.61969
      H1    -0.46361   13.68543   -3.78330
       H     3.21722   14.53252   -5.16395
       O     2.32683   14.33035   -5.44168
      H1     1.73768   14.27320   -4.71208
       H     2.73879   19.25783    1.47275
       O     3.42191   19.52143    2.09190
      H1     4.19243   19.01719    1.88425
       H     6.05138   17.84874    2.93345
       O     5.73606   18.64383    3.29926
      H1     6.01528   18.48312    4.27524
       H    -3.32089   15.76638    3.24522
       O    -2.84747   14.92694    3.01245
      H1    -3.14232   14.85472    2.06846
       H     5.74129   16.27060   -2.10773
       O     6.66941   16.59144   -2.06846
      H1     6.85338   16.92410   -2.99560
       H    -1.03642   18.34565   -3.53235
       O    -0.87592   17.37002   -3.33672
      H1    -1.32265   17.03718   -4.12861
       H     5.24835   18.67758   -0.86583
       O     5.51049   18.31334   -0.00124
      H1     6.03426   17.50012   -0.16007
       H     1.25524   16.91515    5.05925
       O     2.21783   16.83396    5.23328
      H1     2.49922   17.74872    5.40658
       H    -3.16788   17.65205    6.38345
       O    -2.80137   18.23031    5.70533
      H1    -3.35194   17.91652    5.01817
       H    -2.63099   11.56826    1.94764
       O    -2.16026   11.94864    1.14155
      H1    -1.32862   12.32430    1.49739
       H     1.06766   17.49895   -3.20368
       O     1.91260   17.39915   -2.73719
      H1     2.34479   18.21318   -3.11016
       H    -4.73655   16.07655    0.66929
       O    -3.86923   15.67666    0.46915
      H1    -4.24976   14.85727    0.12946
       H     3.63461   15.41224    4.64672
       O     4.34709   14.75341    4.65104
      H1     5.13499   15.31566    4.78041
       H    -0.94450   16.45794    3.87066
       O    -0.51721   16.96111    4.57450
      H1    -1.29233   17.21067    5.06207
       H     0.17749   14.48876    1.52272
       O     0.61472   13.60781    1.61844
      H1     1.56936   13.82411    1.55742
       H    -0.35607   18.82565    3.48544
       O    -0.57869   19.72521    3.53940
      H1     0.18930   20.10263    3.04907
       H     0.96224   16.14424    1.80156
       O    -0.00232   16.05740    1.82768
      H1    -0.30827   16.22000    0.93363

