90
frame 2 | Written by MDAnalysis XYZWriter (release 2.4.3)
       H    16.36946    8.91504   -6.03276
       O    16.65653    9.54091   -6.67122
      H1    15.90842    9.54383   -7.28489
       H    14.73788    5.93024   -8.72411
       O    15.03568    6.87291   -8.77333
      H1    15.97896    6.73179   -8.93652
       H    13.00364    2.52208   -6.72606
       O    12.81754    1.67041   -6.31899
      H1    13.29726    1.10378   -6.97914
       H    12.50369    6.57513   -5.93066
       O    11.93785    7.17329   -5.49300
      H1    12.56015    7.64352   -4.95333
       H    18.15432    7.76341   -8.46201
       O    17.98091    7.18174   -9.22246
      H1    17.82916    7.75984   -9.99310
       H    16.59943    7.78502   -3.60976
       O    16.29510    8.43710   -4.23092
      H1    15.33376    8.29694   -4.15658
       H    13.31445    4.78061   -2.30221
       O    13.59392    3.81506   -2.44536
      H1    12.74500    3.36053   -2.59275
       H     8.65613    4.71433   -4.63767
       O     9.42809    4.92159   -4.08311
      H1    10.04242    5.17468   -4.81109
       H    10.46286    4.72345   -7.85087
       O    10.08252    4.87375   -6.98684
      H1    10.19038    3.95050   -6.66105
       H    15.91234    4.01542   -4.73094
       O    15.33558    3.51671   -5.32635
      H1    14.60032    3.55472   -4.68962
       H    10.50652    7.34187   -4.44133
       O     9.67301    7.57997   -3.91541
      H1     9.27601    6.70343   -3.90614
       H    13.88572    9.33995   -3.96810
       O    13.66722    8.48626   -3.65111
      H1    13.43408    8.49189   -2.70408
       H    19.74912    5.34395   -6.47478
       O    19.01343    5.78620   -5.97700
      H1    18.93310    5.21905   -5.21431
       H    14.64903    5.10552   -6.17919
       O    14.40685    6.04360   -6.06406
      H1    14.60088    6.53888   -6.85069
       H    11.67960    8.17027   -7.23606
       O    11.42380    8.91550   -7.82705
      H1    11.16043    8.41923   -8.61490
       H    10.73979    3.39155   -1.66234
       O    11.05569    3.13142   -2.54749
      H1    10.43532    3.57251   -3.09393
       H    17.09971    5.36794   -2.94301
       O    16.64760    4.56136   -3.16977
      H1    16.00842    4.52031   -2.46125
       H    16.59127    2.20493   -4.27679
       O    16.98472    1.64572   -3.57067
      H1    17.91363    1.35368   -3.83597
       H    10.95796    1.80605   -6.51241
       O    10.13278    2.20036   -6.14231
      H1     9.56526    1.44109   -6.34885
       H    13.71083    5.61870  -12.03898
       O    13.48220    5.78580  -11.13763
      H1    14.03454    6.58918  -10.84792
       H    14.97510    7.08584   -1.26035
       O    14.16351    6.59111   -1.12919
      H1    14.27267    6.52656   -0.13712
       H    12.57987    1.19237   -4.58425
       O    12.36657    0.70132   -3.75901
      H1    11.81112    1.36891   -3.39328
       H    11.41112    8.81690   -1.53711
       O    12.30309    8.49420   -1.33116
      H1    12.36573    7.56336   -1.63349
       H    10.33074    4.83135   -9.68388
       O    11.18580    4.43140   -9.72381
      H1    11.53235    5.04312  -10.37422
       H    13.89091   11.29120   -8.22617
       O    13.81394   10.59514   -7.52542
      H1    13.19911    9.94213   -7.88372
       H    18.31590    9.04885   -6.95832
       O    19.19120    8.54660   -7.13952
      H1    19.07319    7.80790   -6.53234
       H    12.96441    3.60061   -9.09631
       O    13.46440    3.42203   -8.29496
      H1    14.30978    3.00779   -8.61624
       H    12.94713   11.14433   -4.54279
       O    13.92057   11.02666   -4.69643
      H1    13.72261   10.77602   -5.60606
       H    18.15836    4.68171   -7.85341
       O    18.00844    3.94052   -8.39952
      H1    18.04065    3.29299   -7.67319
       H    18.59319    7.29836   -3.19780
       O    17.87449    6.85218   -2.73444
      H1    17.67255    7.45126   -2.00332

