90
frame 2 | Written by MDAnalysis XYZWriter (release 2.4.3)
       H   -16.29788    6.55210   -4.51291
       O   -16.82647    6.28702   -3.74429
      H1   -16.04181    6.05125   -3.17670
       H   -13.15051    4.92702   -8.02586
       O   -13.86434    4.93473   -7.35443
      H1   -14.55558    5.25812   -7.96077
       H   -17.57858    2.11748   -7.48525
       O   -18.29011    1.74945   -8.02333
      H1   -18.05515    0.82088   -8.14009
       H   -14.89708    2.43021    0.87367
       O   -14.95914    1.47290    0.68500
      H1   -15.85952    1.36276    1.04638
       H   -13.83090    0.62113   -2.03755
       O   -14.75752    0.59238   -1.90926
      H1   -14.88669    0.74676   -0.97643
       H   -13.67225    6.42050   -4.18631
       O   -13.29500    5.58702   -4.49345
      H1   -13.65721    5.67066   -5.33791
       H   -15.71832    7.30610   -8.94726
       O   -16.38158    6.69420   -8.61682
      H1   -17.11514    6.95388   -9.14225
       H   -16.72330    9.92686   -3.25917
       O   -15.99342    9.72833   -2.65660
      H1   -15.29720    9.40666   -3.22882
       H   -16.87422    4.08043   -7.03020
       O   -17.79487    4.44924   -7.19247
      H1   -17.57114    4.91572   -8.05811
       H   -16.53432    7.71945   -6.73699
       O   -16.60594    8.21778   -5.89857
      H1   -17.59629    8.07177   -5.77859
       H   -18.93637   11.23388   -3.05571
       O   -18.29219   10.86418   -3.67211
      H1   -18.70679   11.02033   -4.53570
       H   -18.27976    3.83634    2.60591
       O   -18.44234    3.66475    1.66696
      H1   -17.95023    2.83108    1.50464
       H   -12.58358    3.97079   -4.33341
       O   -12.06398    3.15627   -4.08688
      H1   -11.25983    3.38366   -4.52701
       H   -15.56641    9.42144   -0.74406
       O   -14.97671    9.33190    0.06337
      H1   -15.42266    9.67356    0.81604
       H   -15.19924    2.42217   -6.68975
       O   -16.03785    2.66355   -6.36669
      H1   -15.96179    2.73243   -5.39774
       H   -19.76636   11.67933   -6.75021
       O   -18.97101   11.31864   -6.26149
      H1   -19.06397   10.37453   -6.25959
       H   -16.48187    4.54057    1.08127
       O   -15.57166    4.49642    1.40662
      H1   -15.11286    5.21003    1.01171
       H   -17.99119    9.26425    0.11047
       O   -18.32159   10.17213    0.19700
      H1   -17.88724   10.45265    1.05514
       H   -15.78001    2.05579   -2.92297
       O   -15.91186    2.83197   -3.40650
      H1   -16.87880    2.81889   -3.64173
       H   -16.61280    7.09501   -0.13428
       O   -17.41451    7.43676    0.29868
      H1   -18.15834    6.88592    0.02993
       H   -18.40200   -1.74280   -4.18550
       O   -18.19634   -0.90402   -3.73663
      H1   -17.83554   -1.26265   -2.87443
       H   -13.97703    6.46057    0.08987
       O   -14.18983    6.89272    0.92406
      H1   -14.45666    7.82371    0.65787
       H   -19.23368    1.85896   -4.22592
       O   -19.80602    1.13600   -4.47744
      H1   -19.31332    0.42134   -4.08103
       H   -18.35665    7.67890   -3.66640
       O   -19.09015    8.24014   -3.78715
      H1   -18.78707    9.09992   -3.66077
       H   -13.37675    8.90683   -4.66232
       O   -14.20528    8.36417   -4.46631
      H1   -14.75679    8.44839   -5.23456
       H   -12.30082    3.93315   -1.01708
       O   -12.38479    4.77032   -1.51251
      H1   -12.38013    4.31993   -2.38903
       H   -14.32134    4.76107   -1.54566
       O   -15.23892    5.04164   -1.78202
      H1   -15.50719    4.39094   -2.50605
       H   -18.24021    0.29419   -1.02438
       O   -18.59574    0.88859   -0.39116
      H1   -19.55195    0.68600   -0.50002
       H   -19.23344    3.86242   -3.17198
       O   -18.77997    4.01653   -3.95860
      H1   -18.28104    4.90136   -3.74856
       H   -19.04605    5.06441    0.71504
       O   -19.47610    5.53451   -0.03095
      H1   -20.15791    6.08781    0.43765

