90
frame 2 | Written by MDAnalysis XYZWriter (release 2.4.3)
       H   -14.94669   14.52648    5.88192
       O   -14.05242   14.76600    6.07791
      H1   -13.74406   14.79040    5.12565
       H   -15.25616    8.41415   10.71279
       O   -15.94225    7.89062   11.14863
      H1   -16.18966    7.29268   10.45318
       H   -11.69379   10.47764    1.42173
       O   -12.11383   11.27663    1.73311
      H1   -12.29371   11.79073    0.96158
       H   -15.14266   10.14116    6.86274
       O   -15.95708    9.60846    7.00032
      H1   -16.00474    9.52978    7.96495
       H    -9.14358   12.51053    8.96332
       O    -8.70988   11.73607    8.62206
      H1    -9.42500   11.04340    8.70812
       H   -18.73897    9.68397    8.28414
       O   -18.06269   10.32280    8.41374
      H1   -17.52258   10.09811    7.66317
       H   -16.13955   14.08788    4.41702
       O   -16.34961   13.71017    5.34263
      H1   -17.30341   13.68671    5.34154
       H   -10.73456   13.17299    9.71153
       O   -10.36929   13.76805    8.99049
      H1   -10.84467   13.49623    8.17695
       H   -11.54012    9.62892    8.24105
       O   -10.60059    9.59947    8.50715
      H1   -10.36740    8.95472    7.80015
       H   -16.03285    6.98627    5.20861
       O   -15.45275    6.93897    5.98793
      H1   -15.48404    7.85059    6.33360
       H   -10.25372    8.60656   11.56485
       O   -10.56757    9.47680   11.29608
      H1   -10.78233    9.49059   10.32728
       H    -7.87518    9.03034    4.17615
       O    -8.84090    9.13502    4.08756
      H1    -8.93111   10.10062    3.95274
       H   -11.00585   11.88894   11.76523
       O   -11.57740   12.15815   10.98398
      H1   -12.08425   11.37778   10.84912
       H    -9.43707   12.33263    3.42490
       O   -10.14571   11.76034    3.74683
      H1   -10.78217   11.78141    2.98797
       H   -12.46122   14.91735    2.94265
       O   -12.76741   15.51022    3.69852
      H1   -12.80910   16.34688    3.20070
       H   -13.11637   15.55141   10.84288
       O   -12.99724   16.39664   10.37665
      H1   -13.53811   16.95390   10.92280
       H   -12.94385   11.56347    7.03106
       O   -13.31385   10.67392    7.04156
      H1   -12.82446   10.28221    6.31022
       H   -11.76088    8.45290    5.06661
       O   -12.03047    9.39484    5.11424
      H1   -11.30138    9.81916    4.65463
       H   -16.00980   11.76705    1.54628
       O   -16.27344   10.92599    1.92801
      H1   -16.05797   11.10012    2.85275
       H    -8.84522   12.22915    7.08070
       O    -8.58741   12.49629    6.18606
      H1    -9.36887   12.71664    5.73756
       H    -9.83619   15.63792    5.52592
       O   -10.04113   15.73578    4.57743
      H1   -11.02137   15.53693    4.48271
       H   -10.48899    7.01448    5.38156
       O   -11.09326    6.88520    4.63696
      H1   -11.80054    6.39795    5.10802
       H   -16.76726   13.39251   11.16401
       O   -16.03235   12.68806   11.34164
      H1   -15.26393   13.28679   11.26583
       H   -14.04295   12.75802    2.84394
       O   -13.98265   12.08388    3.48929
      H1   -13.30407   11.54141    3.11911
       H    -9.01554    8.26103    5.77386
       O    -9.29506    7.80548    6.58363
      H1    -8.39779    7.46604    6.88830
       H   -14.00764   10.74516   11.46448
       O   -14.17240   10.85089   10.47559
      H1   -15.03277   11.36834   10.51623
       H   -12.57718   13.80815    6.82561
       O   -11.90994   13.09753    6.75055
      H1   -11.70394   13.09205    5.84537
       H   -14.03498    8.93200    8.99644
       O   -14.54308    8.13495    8.93601
      H1   -13.87907    7.48008    9.25448
       H   -12.99338   13.16088   11.71678
       O   -13.59893   13.89413   11.85214
      H1   -13.66021   13.83417   12.80605
       H   -16.44665   11.74558    5.04440
       O   -17.23820   11.11113    4.87544
      H1   -17.17293   10.36382    5.51703

