90
frame 2 | Written by MDAnalysis XYZWriter (release 2.4.3)
       H    -2.79213   -4.45962   -0.35973
       O    -2.63520   -5.24939    0.21926
      H1    -3.48223   -5.22489    0.68150
       H    -0.57564   -0.86733   -0.48751
       O    -1.23822   -1.39547   -0.08089
      H1    -1.94059   -0.71216    0.06362
       H    -4.01183   -7.34440    4.94829
       O    -4.82742   -6.78175    4.98113
      H1    -4.86713   -6.39705    5.88472
       H    -3.50420   -8.01074   -3.76557
       O    -3.01866   -7.16548   -4.02790
      H1    -3.68651   -6.43253   -3.92760
       H     0.35275   -4.82599   -1.18908
       O     0.17176   -5.21928   -2.04348
      H1    -0.51573   -5.89168   -1.80099
       H    -6.55378   -6.57599   -2.92518
       O    -5.93516   -6.70654   -2.21965
      H1    -5.33691   -6.01666   -2.52184
       H    -2.28970   -8.15998    5.89174
       O    -2.50364   -8.21146    4.94532
      H1    -1.96648   -7.44828    4.63271
       H    -0.10362   -6.85409    3.76578
       O    -0.82313   -6.30823    4.04846
      H1    -0.43271   -6.06574    4.92647
       H    -0.93609  -11.32456    3.53109
       O    -1.06161  -10.67676    2.84747
      H1    -1.63135   -9.97233    3.18030
       H    -4.89730   -1.71128    2.51549
       O    -4.76625   -2.33324    1.78417
      H1    -5.53852   -2.16499    1.29398
       H    -7.46682   -6.63488   -0.88777
       O    -8.23713   -6.82637   -0.35366
      H1    -8.14387   -6.17502    0.36191
       H    -9.07752   -2.68625    3.83615
       O    -8.43703   -2.20293    3.29374
      H1    -8.05751   -2.93246    2.75524
       H    -4.37551   -4.25043    2.42300
       O    -4.72814   -5.14843    2.19413
      H1    -4.33482   -5.63763    2.95167
       H    -2.34990   -7.09092   -2.33105
       O    -1.77983   -7.14353   -1.48743
      H1    -2.14564   -6.49755   -0.81096
       H    -6.94557   -3.39402    0.40199
       O    -6.94722   -2.44941    0.28398
      H1    -6.49514   -2.33612   -0.52812
       H     0.05691   -6.97230   -5.02695
       O    -0.59808   -6.27358   -5.18611
      H1    -1.25874   -6.57811   -4.58587
       H    -2.55149   -1.37065    5.35526
       O    -1.81148   -1.98861    5.41239
      H1    -2.03701   -2.57680    4.70714
       H    -0.03365   -1.61896    1.08497
       O     0.86144   -1.90205    1.43243
      H1     0.70603   -1.83706    2.35818
       H    -6.84812   -5.08719    2.07205
       O    -7.70919   -4.97710    1.57562
      H1    -8.34120   -5.00814    2.30872
       H    -2.16198   -3.55259    2.48188
       O    -2.23450   -3.89621    3.33560
      H1    -1.67660   -4.70872    3.39396
       H    -4.88025   -1.06773   -1.91393
       O    -5.31407   -1.89264   -1.93864
      H1    -4.62731   -2.51577   -2.25088
       H    -7.17695   -8.61617    0.27327
       O    -7.57812   -9.48495    0.44996
      H1    -6.80737  -10.00885    0.23231
       H    -3.67641   -3.91274   -2.48412
       O    -4.22919   -4.57230   -2.94752
      H1    -4.16028   -4.22307   -3.88524
       H     2.28243   -4.31059    1.28675
       O     1.39569   -4.53792    0.94742
      H1     0.92188   -3.71698    0.84381
       H    -0.12187   -3.60987   -3.49692
       O    -0.42008   -2.85455   -3.98782
      H1    -0.05670   -2.95450   -4.87742
       H     1.80040   -4.75932    4.46850
       O     2.27211   -4.68547    3.63741
      H1     1.53936   -4.81861    3.09584
       H    -5.01123   -8.45038   -1.37856
       O    -4.54074   -9.14190   -0.97967
      H1    -4.07543   -8.65062   -0.30276
       H     0.88986   -7.73320    0.16153
       O     0.82254   -7.48299    1.13318
      H1     0.96866   -6.53934    1.08968
       H     0.34372   -9.37061   -0.93324
       O     0.58679   -8.57374   -1.49773
      H1    -0.30223   -8.23589   -1.61966
       H    -1.78020   -3.11485   -2.63518
       O    -2.40202   -3.01690   -1.92053
      H1    -2.04802   -2.25815   -1.42069

