90
frame 2 | Written by MDAnalysis XYZWriter (release 2.4.3)
       H   -15.96046    4.16604   19.07387
       O   -16.18653    3.22905   19.17844
      H1   -16.67815    3.15089   18.33767
       H   -18.78430    3.45480   11.18524
       O   -18.41984    3.36771   10.28057
      H1   -17.48631    3.38339   10.55750
       H   -17.09720   -1.06055   11.72433
       O   -16.87401   -1.05780   12.67677
      H1   -17.33265   -0.27818   13.01248
       H   -11.91496   -2.07780   16.81943
       O   -12.43904   -1.22619   16.74347
      H1   -11.79677   -0.48906   16.84031
       H   -18.21405    3.55649   16.31306
       O   -17.65759    2.92145   16.81522
      H1   -16.74273    3.23959   16.71285
       H   -18.61434   -5.95066   16.33430
       O   -18.96212   -6.49607   17.05922
      H1   -18.73678   -7.38831   16.75743
       H   -19.29023   -1.58338   14.98871
       O   -19.57936   -2.09665   14.22074
      H1   -19.17093   -2.93962   14.28471
       H   -14.37699    2.97045   16.25085
       O   -14.99504    3.70891   16.08679
      H1   -14.69862    4.47525   16.60275
       H   -18.48322    6.93633   18.30874
       O   -17.90151    6.77673   17.54570
      H1   -17.57908    7.72254   17.39461
       H    -9.93261   -1.46602   19.71251
       O   -10.39756   -2.21940   19.34051
      H1   -11.33839   -2.12480   19.44947
       H   -14.97837    2.08240   19.29068
       O   -14.30380    1.29290   19.25712
      H1   -14.74247    0.76329   19.89567
       H   -17.56046    1.62559   15.36380
       O   -17.28646    1.20435   14.54062
      H1   -16.33313    1.05139   14.59248
       H   -18.13864    1.59641   17.95083
       O   -18.28309    0.78912   18.53443
      H1   -18.13812    0.05875   17.85905
       H   -17.76843    4.92745   14.76831
       O   -18.44918    5.14770   15.43433
      H1   -18.00648    5.69006   16.10529
       H   -18.44173   -5.04064   14.20353
       O   -18.42298   -4.39473   15.01123
      H1   -17.54679   -4.00415   15.06884
       H   -14.24147   -0.75893   13.98888
       O   -14.47519   -1.10360   14.85640
      H1   -13.62796   -1.00431   15.29107
       H   -14.33418   -5.56395   17.54285
       O   -13.36716   -5.52397   17.60304
      H1   -13.13024   -6.45760   17.70066
       H   -15.37555   -3.30188   12.86251
       O   -15.02746   -3.09199   11.98182
      H1   -14.10353   -3.38851   11.97281
       H   -15.16478    5.69137   13.74456
       O   -15.80451    4.92796   13.80224
      H1   -15.48857    4.46512   14.58329
       H   -12.97182   -5.96552   14.75462
       O   -13.50870   -5.22495   14.94394
      H1   -13.44568   -5.30408   15.90213
       H   -13.67972    5.32923   18.62622
       O   -13.63202    5.59845   17.69172
      H1   -12.62648    5.46992   17.56281
       H   -16.60616   -3.84703   18.24446
       O   -17.46736   -3.70526   17.81053
      H1   -18.06165   -4.14151   18.40423
       H   -15.72656   -2.43486   14.79052
       O   -16.01694   -3.34076   14.90290
      H1   -15.16375   -3.80083   15.19855
       H   -16.31504   -7.10596   17.89260
       O   -15.96472   -6.39597   17.31680
      H1   -16.71162   -5.76364   17.39268
       H   -15.20338   -2.36367   16.73932
       O   -14.68902   -2.28531   17.53460
      H1   -13.92098   -1.75557   17.30780
       H   -12.73703    1.91949   19.29905
       O   -12.00159    2.49281   19.07903
      H1   -11.23346    1.93630   19.34484
       H   -12.76507   -0.81914   12.44487
       O   -13.66317   -0.55123   12.24066
      H1   -14.18910   -1.33505   12.14329
       H   -16.61110    5.86773   20.10523
       O   -16.12490    5.99011   19.26589
      H1   -16.84341    6.16155   18.52472
       H   -19.60079   -1.91171   16.83052
       O   -18.73313   -1.45341   16.99038
      H1   -18.08392   -2.16588   16.89235
       H   -12.90507    1.80870   17.45420
       O   -12.99285    1.82425   16.46479
      H1   -12.31255    2.50456   16.25579

