90
frame 2 | Written by MDAnalysis XYZWriter (release 2.4.3)
       H    -8.89208   11.81630  -10.64956
       O    -8.18729   11.24066  -10.30419
      H1    -7.55732   11.17574  -11.05069
       H    -9.18423   13.20230  -14.43301
       O    -9.70429   12.57722  -14.97972
      H1   -10.52542   12.37615  -14.43026
       H    -6.80176   12.16957   -7.38268
       O    -7.14600   13.01155   -7.67007
      H1    -6.98606   13.54644   -6.91304
       H   -12.40633   10.31250  -11.90662
       O   -12.55765   10.26252  -10.96101
      H1   -12.52234   11.20219  -10.66804
       H   -15.31779   16.97791   -9.61324
       O   -14.45239   17.36241   -9.72717
      H1   -14.24390   17.20189  -10.68502
       H   -14.02902   16.05149  -12.35363
       O   -13.24648   16.57464  -12.01425
      H1   -13.34700   17.34492  -12.58200
       H    -3.59050   15.47927  -12.87611
       O    -3.84779   14.65810  -12.49726
      H1    -4.30184   14.33432  -13.29686
       H    -6.04403   11.92486   -9.69602
       O    -5.20371   11.89462  -10.17496
      H1    -5.50483   11.81586  -11.08473
       H   -12.60084   19.48730  -13.73707
       O   -12.30342   18.64162  -14.11226
      H1   -11.39716   18.69935  -13.76589
       H    -7.33624   19.35295   -8.33772
       O    -7.04658   18.72820   -7.64643
      H1    -7.44805   17.90765   -7.96532
       H   -10.97360   16.90352   -6.31421
       O   -10.13688   17.28302   -5.97703
      H1   -10.15039   16.90752   -5.10013
       H   -10.13531   13.89025  -10.33543
       O   -10.43877   13.01942   -9.98658
      H1   -10.11159   13.14067   -9.03512
       H    -9.90827   16.05391  -11.57611
       O    -9.35555   15.36679  -11.21028
      H1    -8.90234   15.81341  -10.49365
       H    -8.44820   19.49018  -15.61916
       O    -7.49828   19.25694  -15.73866
      H1    -7.41546   18.71127  -14.99175
       H   -12.53801   15.80429   -7.84104
       O   -12.23394   16.65733   -7.55331
      H1   -12.96097   16.88291   -6.89904
       H    -8.20372   14.36066  -12.87063
       O    -7.78650   14.30637  -13.75204
      H1    -7.67268   15.27820  -13.86757
       H    -4.66402   14.71874  -10.70409
       O    -4.92342   14.73059   -9.78634
      H1    -4.98176   13.76424   -9.59966
       H    -7.15787   15.32891   -8.89369
       O    -7.61955   16.12771   -9.19810
      H1    -7.15175   16.36712  -10.00909
       H   -11.26381   16.25021  -14.32166
       O   -11.42076   15.45460  -13.74287
      H1   -12.17222   15.70558  -13.18313
       H   -12.72434   12.30710  -14.13229
       O   -11.94746   12.40877  -13.56182
      H1   -11.86148   13.37263  -13.64680
       H   -11.76443   17.21678   -8.98633
       O   -11.57431   17.63675   -9.89254
      H1   -12.29342   17.16512  -10.34801
       H    -9.12981   14.05539   -6.98451
       O    -9.88745   14.46607   -7.45108
      H1    -9.94855   15.30270   -6.94252
       H    -8.14515   14.15245  -16.69881
       O    -8.20839   14.71968  -17.48225
      H1    -7.25445   14.80574  -17.78879
       H    -6.83899   12.74194  -13.00337
       O    -6.42956   12.01191  -12.48932
      H1    -5.91129   11.42475  -13.10638
       H    -9.57454   18.85940  -12.39580
       O   -10.14972   18.07039  -12.40596
      H1   -10.46854   18.03540  -11.45132
       H   -13.67351   12.91660   -9.61273
       O   -13.22499   12.96805  -10.47541
      H1   -12.28506   13.14793  -10.28679
       H   -10.54394   13.06272  -16.46883
       O   -11.13915   12.80305  -17.15784
      H1   -10.65690   13.13502  -17.91900
       H   -12.85699   13.50554   -6.28226
       O   -12.58424   13.51083   -7.23660
      H1   -11.65923   13.93526   -7.15014
       H    -7.12154   17.44522  -13.00895
       O    -7.72151   17.21147  -13.78888
      H1    -8.63697   17.17749  -13.40137
       H    -6.17642   18.68656  -11.30313
       O    -6.31144   17.75329  -11.60382
      H1    -5.37052   17.56200  -11.91187

