90
frame 2 | Written by MDAnalysis XYZWriter (release 2.4.3)
       H    14.36911    3.44090   -0.65166
       O    15.10523    3.46203    0.01133
      H1    15.67638    2.69246   -0.06673
       H    16.26332   10.62432    0.05778
       O    17.21141   10.47361    0.07482
      H1    17.40463   10.79196    0.98075
       H    12.50369    6.57513   -5.93066
       O    11.93785    7.17329   -5.49300
      H1    12.56015    7.64352   -4.95333
       H    16.97583    8.85575   -0.63323
       O    16.57754    7.94020   -0.81306
      H1    16.74545    7.55061    0.07283
       H    16.59943    7.78502   -3.60976
       O    16.29510    8.43710   -4.23092
      H1    15.33376    8.29694   -4.15658
       H    13.31445    4.78061   -2.30221
       O    13.59392    3.81506   -2.44536
      H1    12.74500    3.36053   -2.59275
       H     8.65613    4.71433   -4.63767
       O     9.42809    4.92159   -4.08311
      H1    10.04242    5.17468   -4.81109
       H    13.80281   14.07541   -0.57610
       O    12.92158   14.27197   -0.33817
      H1    12.43451   13.55368   -0.75828
       H    10.50652    7.34187   -4.44133
       O     9.67301    7.57997   -3.91541
      H1     9.27601    6.70343   -3.90614
       H    10.93502   12.90545   -1.63159
       O    11.37951   12.13719   -1.14983
      H1    10.94468   12.28100   -0.27715
       H    13.98636   12.42447    1.99763
       O    14.89753   12.34067    1.63869
      H1    15.38459   11.87665    2.37257
       H    13.88572    9.33995   -3.96810
       O    13.66722    8.48626   -3.65111
      H1    13.43408    8.49189   -2.70408
       H    14.52186   11.44676   -0.19440
       O    14.43042   10.80564   -0.98293
      H1    13.51864   10.59084   -0.96868
       H    10.87643   12.65473   -5.07009
       O    11.28584   11.91992   -4.62193
      H1    10.50046   11.31215   -4.52852
       H    11.33823    8.59444    1.73388
       O    12.15383    9.08685    1.48123
      H1    12.21260    9.12674    0.48934
       H     9.38050    4.52029    0.71950
       O     9.40392    5.40690    0.31140
      H1    10.35977    5.46244    0.35820
       H    10.73979    3.39155   -1.66234
       O    11.05569    3.13142   -2.54749
      H1    10.43532    3.57251   -3.09393
       H     6.90680    7.61812   -0.01700
       O     6.80235    6.65077    0.02904
      H1     7.68660    6.30250    0.19691
       H    16.44967   10.53775   -3.50278
       O    16.43820   11.28582   -2.84988
      H1    15.52321   11.36833   -2.42701
       H    14.13244    6.63737    2.20096
       O    13.62694    6.73069    1.40658
      H1    13.41881    7.70413    1.49920
       H    10.81365    6.44533    2.37514
       O    10.68217    7.28613    2.72860
      H1     9.73552    7.26238    2.94643
       H    14.97510    7.08584   -1.26035
       O    14.16351    6.59111   -1.12919
      H1    14.27267    6.52656   -0.13712
       H     9.30926    9.91531   -1.72424
       O     9.90619    9.85501   -1.00430
      H1    10.53520   10.61226   -1.10379
       H    11.82419   11.84335    2.46918
       O    12.55549   11.51496    2.98850
      H1    12.64584   10.61885    2.66847
       H    11.60584    4.18039    2.54515
       O    11.68369    4.51257    1.63969
      H1    12.31538    5.24743    1.61543
       H     9.58241   12.54544    1.43020
       O    10.56659   12.49437    1.44550
      H1    10.82733   13.38010    1.64304
       H     7.83545    9.68788   -3.33334
       O     7.66454    9.03663   -2.60788
      H1     8.41404    8.38300   -2.69946
       H     8.69396    9.34030    0.32015
       O     8.02731    9.31951    1.04188
      H1     7.63316   10.20045    0.85663
       H    11.41112    8.81690   -1.53711
       O    12.30309    8.49420   -1.33116
      H1    12.36573    7.56336   -1.63349
       H    12.94713   11.14433   -4.54279
       O    13.92057   11.02666   -4.69643
      H1    13.72261   10.77602   -5.60606

