90
frame 2 | Written by MDAnalysis XYZWriter (release 2.4.3)
       H    -8.89208   11.81630  -10.64956
       O    -8.18729   11.24066  -10.30419
      H1    -7.55732   11.17574  -11.05069
       H    -3.63406    9.91850   -5.49230
       O    -4.12002    9.10464   -5.76461
      H1    -3.66551    8.76770   -6.53864
       H    -3.38892   12.97520   -6.87756
       O    -3.11628   12.11441   -7.25384
      H1    -2.26046   12.31308   -7.61775
       H    -3.19426    9.00379  -11.26834
       O    -3.28748    9.89636  -11.57186
      H1    -3.25762   10.38663  -10.70548
       H    -6.80176   12.16957   -7.38268
       O    -7.14600   13.01155   -7.67007
      H1    -6.98606   13.54644   -6.91304
       H    -3.59050   15.47927  -12.87611
       O    -3.84779   14.65810  -12.49726
      H1    -4.30184   14.33432  -13.29686
       H    -6.79242    8.20952  -11.74944
       O    -6.08879    8.40163  -11.11086
      H1    -6.43271    7.95497  -10.31500
       H    -6.77480    5.83449   -9.02474
       O    -7.26009    6.63949   -9.30497
      H1    -7.66490    6.86009   -8.46368
       H    -6.04403   11.92486   -9.69602
       O    -5.20371   11.89462  -10.17496
      H1    -5.50483   11.81586  -11.08473
       H    -0.34216   12.74344   -8.79494
       O    -0.59212   13.03112   -7.87023
      H1    -0.31660   13.94797   -7.77487
       H    -3.73388   17.52793   -8.37731
       O    -3.31063   16.63995   -8.36490
      H1    -3.90165   16.14733   -8.92206
       H   -10.13531   13.89025  -10.33543
       O   -10.43877   13.01942   -9.98658
      H1   -10.11159   13.14067   -9.03512
       H    -9.90827   16.05391  -11.57611
       O    -9.35555   15.36679  -11.21028
      H1    -8.90234   15.81341  -10.49365
       H    -3.11026   14.80405   -7.02494
       O    -3.04738   14.55825   -6.09952
      H1    -3.18295   15.40849   -5.64615
       H    -8.20372   14.36066  -12.87063
       O    -7.78650   14.30637  -13.75204
      H1    -7.67268   15.27820  -13.86757
       H    -3.87660    6.87917  -12.85807
       O    -3.80325    7.02270  -11.86929
      H1    -4.60562    7.52316  -11.67808
       H    -4.66402   14.71874  -10.70409
       O    -4.92342   14.73059   -9.78634
      H1    -4.98176   13.76424   -9.59966
       H    -7.15787   15.32891   -8.89369
       O    -7.61955   16.12771   -9.19810
      H1    -7.15175   16.36712  -10.00909
       H    -3.90811   12.75282  -14.54363
       O    -4.11160   13.52737  -15.06531
      H1    -4.52214   13.14941  -15.92017
       H    -0.31000   11.26192  -13.87252
       O    -0.83960   10.50409  -13.50760
      H1    -1.66358   10.91350  -13.23198
       H    -9.12981   14.05539   -6.98451
       O    -9.88745   14.46607   -7.45108
      H1    -9.94855   15.30270   -6.94252
       H     0.72351   11.73143  -10.83741
       O     0.44761   12.57024  -10.38233
      H1    -0.42426   12.62474  -10.74040
       H    -4.08256   10.69337   -8.56199
       O    -4.16815    9.73750   -8.75969
      H1    -4.94417    9.69019   -9.29197
       H    -6.83899   12.74194  -13.00337
       O    -6.42956   12.01191  -12.48932
      H1    -5.91129   11.42475  -13.10638
       H    -3.93936   10.39122  -13.10084
       O    -4.29559   10.68396  -13.96782
      H1    -4.32117    9.78611  -14.38975
       H   -10.27884    9.83411   -8.18337
       O    -9.57197    9.22609   -8.42147
      H1    -8.98422    9.79102   -8.93009
       H    -5.58937   11.93087   -4.87171
       O    -5.34823   12.78191   -5.23765
      H1    -5.61482   13.47547   -4.63433
       H    -2.97750   13.33172  -11.54312
       O    -2.52930   12.97999  -10.76461
      H1    -3.31592   12.50675  -10.42292
       H    -2.11304    7.65905   -8.17804
       O    -2.93055    7.29762   -8.57076
      H1    -3.47258    8.11774   -8.63776
       H    -5.71270   10.04428   -6.96210
       O    -6.58364   10.11681   -7.28948
      H1    -6.95462    9.32858   -6.85513

