90
frame 2 | Written by MDAnalysis XYZWriter (release 2.4.3)
       H    -3.02495   15.56368    6.57205
       O    -2.21953   15.04297    6.33934
      H1    -1.49835   15.33641    6.97469
       H    -6.31045    8.50531    7.67020
       O    -6.61547    9.38305    7.29460
      H1    -7.48902    9.17925    7.00552
       H    -1.29338   12.24151    8.79651
       O    -1.46308   12.18593    9.75948
      H1    -0.50339   12.04429   10.13090
       H    -3.20138   13.56051    5.74295
       O    -3.94928   12.98066    5.43573
      H1    -4.17513   12.55354    6.27901
       H    -5.74341   17.05458    6.43800
       O    -5.01077   16.51069    6.46911
      H1    -5.24447   15.93838    5.71049
       H    -5.79178   15.47057   12.08307
       O    -5.27545   14.61542   12.22002
      H1    -4.70756   14.90871   12.92861
       H    -9.14358   12.51053    8.96332
       O    -8.70988   11.73607    8.62206
      H1    -9.42500   11.04340    8.70812
       H   -10.91289   16.83436    9.39442
       O    -9.97989   16.62380    9.58757
      H1   -10.06343   15.66473    9.37597
       H   -10.73456   13.17299    9.71153
       O   -10.36929   13.76805    8.99049
      H1   -10.84467   13.49623    8.17695
       H    -7.47314   13.91207    2.85738
       O    -7.78073   12.97446    2.79591
      H1    -7.21936   12.59777    3.47099
       H    -6.03086   14.95836    9.02889
       O    -6.11557   14.53333    8.11320
      H1    -5.70175   15.18612    7.48999
       H    -6.44219   13.90350   13.19093
       O    -7.21559   13.59638   13.74855
      H1    -7.84791   13.29828   13.08941
       H    -9.22585   16.68213    7.93516
       O    -8.65130   16.21821    7.28970
      H1    -7.99306   15.78681    7.87234
       H    -8.01176   11.18313   10.14772
       O    -7.46291   10.90536   10.94656
      H1    -6.75233   11.59678   10.85185
       H    -6.08846   11.28759    7.75314
       O    -5.24972   11.79775    7.58521
      H1    -5.71000   12.70109    7.57499
       H    -6.13881    9.70126   10.80441
       O    -5.25114    9.31012   10.78741
      H1    -4.73492    9.97366   10.38796
       H    -4.70674   12.59664    9.53461
       O    -5.05065   12.20626   10.33911
      H1    -4.90790   12.87032   11.07084
       H    -7.39047   16.68516   11.26923
       O    -7.30964   16.12527   10.42914
      H1    -8.21689   16.16102   10.14351
       H    -2.21919   13.79700    9.59051
       O    -2.59869   14.60373    9.97404
      H1    -2.58745   15.32962    9.32376
       H    -3.14119   18.05873    8.65259
       O    -2.77303   17.16014    8.81289
      H1    -1.86056   17.39693    8.92967
       H    -7.98565   17.72750    6.62880
       O    -7.31070   18.29619    6.19252
      H1    -7.60760   19.08939    6.62495
       H    -5.56282   11.99696    4.85253
       O    -6.38313   11.67199    4.53872
      H1    -6.86094   11.84507    5.31404
       H    -5.02689   14.13224    4.28348
       O    -5.79180   14.72746    4.27783
      H1    -5.81954   15.21535    3.41675
       H    -8.84522   12.22915    7.08070
       O    -8.58741   12.49629    6.18606
      H1    -9.36887   12.71664    5.73756
       H    -9.83619   15.63792    5.52592
       O   -10.04113   15.73578    4.57743
      H1   -11.02137   15.53693    4.48271
       H    -2.70623   11.04237    9.25234
       O    -3.01750   10.29737    8.67752
      H1    -3.80330   10.73989    8.41330
       H    -3.16788   17.65205    6.38345
       O    -2.80137   18.23031    5.70533
      H1    -3.35194   17.91652    5.01817
       H    -7.86362   18.18036    4.57783
       O    -8.55088   18.13142    3.83539
      H1    -8.91849   17.23770    3.93990
       H    -5.75847   17.51305   10.09463
       O    -5.16332   18.21574    9.79314
      H1    -4.54279   18.23495   10.54520
       H    -3.47472   12.10396    4.06962
       O    -3.38046   11.34037    3.49903
      H1    -2.76165   10.87831    4.08489

