90
frame 2 | Written by MDAnalysis XYZWriter (release 2.4.3)
       H    13.50904  -18.56851    2.26258
       O    14.08917  -18.12147    1.61707
      H1    14.05155  -17.24436    2.01710
       H     7.87317  -15.94323    4.92365
       O     8.24281  -15.34368    5.63384
      H1     9.09190  -15.02881    5.27373
       H     9.74708  -16.80847    7.64095
       O     8.80020  -17.07618    7.65574
      H1     8.35604  -16.40600    7.01650
       H    18.07210  -13.67527    6.71483
       O    17.35091  -13.58218    7.33725
      H1    16.62328  -14.05324    6.90756
       H    11.56978  -13.34763    1.81681
       O    12.52272  -13.04954    1.93224
      H1    12.34016  -12.33785    2.60093
       H    14.45267  -18.45232    5.65237
       O    14.03086  -19.38283    5.45408
      H1    13.71469  -19.56548    6.36709
       H    16.36269  -15.58171    0.32245
       O    16.57845  -15.17568    1.18938
      H1    16.30273  -15.87150    1.81349
       H    12.24305  -12.37750    9.07394
       O    12.84546  -13.10735    8.90438
      H1    13.64548  -12.64180    8.58390
       H    13.47248  -14.66649    2.66880
       O    13.59225  -15.59619    2.87583
      H1    12.71194  -15.87803    2.63502
       H    17.95875  -18.40606   -0.07239
       O    17.53505  -19.01229    0.58888
      H1    17.67506  -18.53581    1.42099
       H    18.32637  -16.84897    8.20466
       O    17.60681  -17.47498    8.23806
      H1    16.80350  -16.95236    8.31974
       H    13.19470  -14.34180   10.21803
       O    13.44719  -15.18404   10.57965
      H1    14.18679  -14.89392   11.17208
       H    14.24159  -16.30946    4.95807
       O    15.10230  -16.67632    5.26477
      H1    15.42819  -17.02043    4.37412
       H    17.45997  -18.93890    3.76691
       O    17.58139  -18.15935    3.19345
      H1    18.55443  -18.26397    3.11302
       H    16.51816  -19.60513    5.84716
       O    17.21881  -18.93923    6.00948
      H1    16.96763  -18.44000    6.77756
       H    14.33418  -15.65194    7.82839
       O    14.68784  -16.35781    8.43827
      H1    14.23210  -16.15038    9.27377
       H    14.72619  -17.48963   -0.48358
       O    14.81567  -16.82977   -1.18653
      H1    14.31835  -16.08215   -0.75358
       H    12.00705  -16.27454    6.98362
       O    11.51528  -17.03790    7.30789
      H1    11.88233  -17.30690    8.18991
       H    12.80079  -18.76103    9.81809
       O    11.98109  -18.26068    9.94067
      H1    12.11197  -17.76664   10.71914
       H    10.64765  -15.37685    3.93057
       O    10.51413  -14.53484    4.47845
      H1     9.82425  -14.05071    3.96568
       H    10.72043  -16.94202    2.23192
       O    11.18338  -16.54798    2.96006
      H1    11.59571  -17.33614    3.34886
       H    12.91315  -13.96198    7.20361
       O    13.07583  -14.45173    6.37552
      H1    12.24434  -14.16405    5.94503
       H    13.27513  -13.98031    0.09857
       O    13.32198  -14.88105   -0.23814
      H1    12.60369  -14.77050   -0.91208
       H    16.52873  -13.17120    9.22413
       O    16.45677  -12.94967   10.14417
      H1    17.26213  -13.43497   10.41869
       H    13.83712  -10.53222    2.96468
       O    14.84150  -10.51102    2.89380
      H1    15.13581  -11.33236    2.46125
       H    17.86651  -11.47398    6.41226
       O    17.78515  -11.36255    5.42906
      H1    17.35456  -12.19826    5.28457
       H    16.80332  -13.06395    2.30644
       O    16.95510  -12.34761    1.65620
      H1    17.74588  -11.82360    2.00714
       H    18.24015  -16.76037    5.10378
       O    18.19706  -15.79888    5.36472
      H1    18.34922  -15.83551    6.35658
       H    17.09783  -14.24664    4.58978
       O    16.29726  -13.79007    4.42053
      H1    15.58158  -14.36369    4.69006
       H     9.12577  -18.77836    4.95555
       O     9.14081  -19.05065    5.91405
      H1     9.26372  -18.15327    6.33776

