90
frame 2 | Written by MDAnalysis XYZWriter (release 2.4.3)
       H    -1.09646   14.30506   -2.09480
       O    -1.71663   14.04325   -1.40053
      H1    -1.60855   14.81134   -0.81613
       H    -3.63406    9.91850   -5.49230
       O    -4.12002    9.10464   -5.76461
      H1    -3.66551    8.76770   -6.53864
       H    -3.38892   12.97520   -6.87756
       O    -3.11628   12.11441   -7.25384
      H1    -2.26046   12.31308   -7.61775
       H    -4.85701   16.64795   -4.87687
       O    -4.02523   16.59832   -4.42712
      H1    -4.40434   15.98035   -3.76778
       H    -0.56547   12.69127   -1.03627
       O    -0.02206   11.96707   -0.77267
      H1     0.43456   11.77457   -1.58144
       H     0.05731    8.35133   -7.99358
       O    -0.67399    8.15024   -7.32388
      H1    -0.54643    8.96256   -6.74733
       H    -6.80176   12.16957   -7.38268
       O    -7.14600   13.01155   -7.67007
      H1    -6.98606   13.54644   -6.91304
       H     3.73436   12.29140   -1.87256
       O     3.11942   12.74816   -2.52336
      H1     2.52877   12.02487   -2.78211
       H    -2.22436   17.28348   -6.91300
       O    -1.50553   17.34126   -6.27878
      H1    -1.16837   18.22710   -6.56205
       H    -5.86731   15.09126   -2.48405
       O    -5.16152   14.48445   -2.84720
      H1    -4.89254   14.08231   -1.96864
       H     1.27103   15.21485   -6.53125
       O     0.58619   15.47588   -7.21079
      H1     0.13194   16.03652   -6.57578
       H    -0.51257   10.07855   -0.95499
       O    -0.92955    9.15311   -0.87251
      H1    -0.38589    8.82381   -1.65016
       H     1.99076   13.60415   -1.35991
       O     1.35550   14.29137   -1.17212
      H1     0.80595   13.98917   -0.42512
       H     0.60120   14.35724   -2.86600
       O     0.00877   14.51227   -3.61969
      H1    -0.46361   13.68543   -3.78330
       H    -0.34216   12.74344   -8.79494
       O    -0.59212   13.03112   -7.87023
      H1    -0.31660   13.94797   -7.77487
       H     3.21722   14.53252   -5.16395
       O     2.32683   14.33035   -5.44168
      H1     1.73768   14.27320   -4.71208
       H    -1.90272   13.04999   -5.34166
       O    -1.60545   12.50310   -4.63850
      H1    -2.23146   12.60307   -3.94473
       H    -3.73388   17.52793   -8.37731
       O    -3.31063   16.63995   -8.36490
      H1    -3.90165   16.14733   -8.92206
       H    -3.11026   14.80405   -7.02494
       O    -3.04738   14.55825   -6.09952
      H1    -3.18295   15.40849   -5.64615
       H    -4.66402   14.71874  -10.70409
       O    -4.92342   14.73059   -9.78634
      H1    -4.98176   13.76424   -9.59966
       H    -1.03642   18.34565   -3.53235
       O    -0.87592   17.37002   -3.33672
      H1    -1.32265   17.03718   -4.12861
       H    -3.28445    8.85793   -3.12378
       O    -2.88518    9.72013   -3.00380
      H1    -2.29084    9.57939   -2.24747
       H    -4.08256   10.69337   -8.56199
       O    -4.16815    9.73750   -8.75969
      H1    -4.94417    9.69019   -9.29197
       H    -5.79346   11.24868   -1.68445
       O    -5.83049   10.92523   -2.61783
      H1    -4.89589   10.63546   -2.77610
       H    -5.58937   11.93087   -4.87171
       O    -5.34823   12.78191   -5.23765
      H1    -5.61482   13.47547   -4.63433
       H    -2.97750   13.33172  -11.54312
       O    -2.52930   12.97999  -10.76461
      H1    -3.31592   12.50675  -10.42292
       H    -5.71270   10.04428   -6.96210
       O    -6.58364   10.11681   -7.28948
      H1    -6.95462    9.32858   -6.85513
       H     0.60730   10.84868   -4.27294
       O     1.11169   10.86838   -3.48016
      H1     1.07529    9.91276   -3.24908
       H     2.43150   11.86384   -5.94996
       O     2.92998   11.48331   -6.67604
      H1     3.07570   10.61367   -6.38449
       H     0.12931   11.17927   -6.72202
       O    -0.04862   10.49326   -6.04716
      H1    -0.84972   10.89200   -5.64570

