90
frame 2 | Written by MDAnalysis XYZWriter (release 2.4.3)
       H    -5.72743   -8.33685  -10.59257
       O    -5.97165   -8.55445   -9.69815
      H1    -5.43140   -7.89026   -9.15990
       H    -6.83062   -9.19332   -5.64305
       O    -7.67275   -8.82041   -5.35603
      H1    -7.53869   -7.90156   -5.08264
       H   -10.97849   -5.51383   -4.25694
       O   -11.47311   -4.91277   -4.79805
      H1   -11.05941   -5.07637   -5.67320
       H   -11.53325   -8.92010  -11.04138
       O   -11.98365   -9.47536  -11.69235
      H1   -12.23111  -10.24748  -11.14858
       H   -10.15594   -7.91258   -9.58480
       O   -11.10800   -7.72160   -9.84417
      H1   -11.15198   -6.79580  -10.14152
       H   -13.16051   -3.83958   -8.49582
       O   -12.76593   -2.93475   -8.61559
      H1   -12.60180   -2.76808   -7.68059
       H    -8.76151   -5.69019  -12.23451
       O    -9.26533   -5.96162  -13.00306
      H1    -9.45518   -5.12249  -13.53042
       H   -11.21998   -5.96153  -12.28395
       O   -11.80069   -5.66581  -11.54337
      H1   -12.58504   -6.15104  -11.75042
       H   -12.62069  -12.44833   -9.16465
       O   -13.21394  -13.14437   -9.37319
      H1   -12.55944  -13.90329   -9.22929
       H    -8.95224   -4.44601  -10.57578
       O    -8.02581   -4.66814  -10.71377
      H1    -7.63858   -3.80315  -10.52516
       H    -9.75979   -6.95498   -7.74273
       O    -9.58210   -6.19419   -7.18659
      H1    -9.61109   -6.63204   -6.28321
       H   -11.00662   -3.26668   -9.66431
       O   -10.54783   -3.35685  -10.57003
      H1   -11.17244   -4.01248  -10.95237
       H    -9.01572   -9.48050   -6.51541
       O    -9.68799   -9.86173   -7.15233
      H1    -9.80499  -10.74777   -6.68897
       H   -13.79679   -6.94457   -5.49462
       O   -13.35179   -7.75958   -5.73048
      H1   -13.99304   -8.42691   -5.41824
       H    -6.81802  -10.43021  -13.78777
       O    -7.34091   -9.87544  -13.18760
      H1    -6.76774   -9.07913  -13.02276
       H   -10.51655  -12.00562  -12.62940
       O   -10.41826  -11.30673  -13.32964
      H1   -10.74053  -10.49738  -12.83395
       H   -14.90938  -10.77541   -9.86835
       O   -15.38311  -10.19997   -9.26166
      H1   -14.76300   -9.77718   -8.59964
       H   -12.39760  -10.56888   -7.67794
       O   -11.93486  -10.86324   -8.49116
      H1   -11.12680  -10.38499   -8.30653
       H    -6.57341  -11.48375   -8.34090
       O    -7.41521  -11.77541   -7.90958
      H1    -7.38555  -11.49114   -6.98418
       H   -12.75031   -9.26437  -13.77668
       O   -12.45229   -9.05069  -14.65700
      H1   -11.51354   -9.24230  -14.60463
       H   -11.40496   -7.78892   -5.11666
       O   -10.48573   -7.78240   -4.79868
      H1   -10.13285   -8.52643   -5.26989
       H    -7.55769   -5.18920   -8.97550
       O    -7.31697   -5.17154   -8.06206
      H1    -8.16346   -5.23986   -7.60408
       H    -8.13614  -10.71194  -11.46520
       O    -8.39458  -11.25789  -10.68194
      H1    -7.65367  -11.87283  -10.64207
       H    -5.59572   -5.98791   -8.01767
       O    -4.82261   -6.33269   -8.44159
      H1    -4.13747   -6.55975   -7.73937
       H    -8.51753   -9.44180   -9.68959
       O    -8.50938   -8.47110   -9.77658
      H1    -7.53324   -8.32329   -9.77286
       H    -9.41369  -12.67851  -11.05164
       O   -10.00387  -13.37056  -11.36350
      H1    -9.35259  -13.96478  -11.72121
       H   -13.13236   -8.07476   -7.20067
       O   -13.31315   -8.28765   -8.13824
      H1   -12.38913   -8.22619   -8.49963
       H    -4.97660   -7.83997  -13.17519
       O    -5.67532   -7.67946  -12.50722
      H1    -5.72535   -6.70910  -12.45726
       H   -14.16693   -5.56084   -9.76094
       O   -13.58177   -5.45737   -8.97303
      H1   -13.34294   -6.39639   -8.70731
       H   -15.67314   -6.56255  -11.00667
       O   -14.88159   -6.09045  -11.32683
      H1   -15.26575   -5.42774  -11.87742

