90
frame 2 | Written by MDAnalysis XYZWriter (release 2.4.3)
       H     5.00894    0.29170   -5.79169
       O     5.43922    0.41299   -6.65381
      H1     6.11122   -0.26826   -6.54425
       H     3.83144    2.96857  -10.03795
       O     4.39003    3.20402  -10.76812
      H1     4.39648    4.15549  -10.73243
       H     3.33837    1.39196  -13.04434
       O     4.24577    1.11499  -12.83330
      H1     4.54493    1.87922  -12.27597
       H     9.85064   -2.14586  -13.72260
       O     8.92034   -2.17839  -13.36528
      H1     8.68074   -1.31842  -13.81450
       H    11.74635   -2.06513  -14.43337
       O    11.34091   -2.88068  -14.17305
      H1    10.95823   -3.25212  -14.99238
       H     8.87603   -2.62499  -11.59494
       O     9.04038   -2.61200  -10.60749
      H1     8.29492   -3.24331  -10.31237
       H     4.62192   -2.70965   -9.25901
       O     3.86874   -3.12418   -8.80011
      H1     3.98605   -2.82519   -7.89953
       H     6.76051    2.88850  -14.04141
       O     6.37372    2.05602  -14.36672
      H1     5.69301    1.96330  -13.70260
       H     7.74349    0.84197  -14.38518
       O     8.43328    0.25159  -14.65335
      H1     9.07196    0.95159  -14.95314
       H    10.46286    4.72345   -7.85087
       O    10.08252    4.87375   -6.98684
      H1    10.19038    3.95050   -6.66105
       H     7.59790   -2.15636   -5.47741
       O     7.48458   -2.02031   -6.47354
      H1     6.92555   -2.70887   -6.74558
       H    10.93419    1.15281  -10.90114
       O    11.28916    1.95217  -11.29172
      H1    11.07890    2.60312  -10.56539
       H     9.57618   -1.01086  -10.46489
       O     9.81653   -0.06978  -10.25520
      H1     8.97673    0.38390  -10.43252
       H     6.45641   -1.44155  -10.20742
       O     5.65859   -0.86049  -10.22164
      H1     5.07564   -1.37162  -10.80896
       H    10.95796    1.80605   -6.51241
       O    10.13278    2.20036   -6.14231
      H1     9.56526    1.44109   -6.34885
       H    12.97589    1.65820  -12.00733
       O    13.64808    1.24641  -12.60462
      H1    14.16569    0.66284  -11.92680
       H     7.27859    5.04085   -8.37570
       O     7.53274    5.72617   -7.78978
      H1     8.47386    5.63122   -7.58266
       H    10.40923   -3.75720   -9.21535
       O    10.96000   -4.35287   -9.74766
      H1    10.59587   -4.42083  -10.64878
       H     5.37689    2.16764   -6.92920
       O     5.49386    3.06530   -7.28866
      H1     4.74481    3.53311   -6.88468
       H    10.96686   -3.11799   -6.53317
       O    10.05180   -3.47342   -6.46525
      H1     9.56173   -2.60624   -6.56926
       H     9.86355    4.57857  -12.28816
       O    10.32335    3.86537  -12.82012
      H1    10.03177    3.04642  -12.37471
       H    10.74538    1.14597  -15.02290
       O    10.36557    2.03391  -15.29612
      H1    10.74021    2.49633  -14.53819
       H     6.82636   -4.71723  -10.54709
       O     6.81444   -4.07019   -9.79577
      H1     7.10702   -4.57139   -9.04405
       H    12.60536    0.08949  -13.81662
       O    12.03043   -0.29717  -14.50522
      H1    12.72619   -0.31247  -15.25147
       H     7.37695    1.78454  -10.37631
       O     7.53023    1.02381  -10.98579
      H1     6.81226    0.42323  -10.78393
       H    10.33074    4.83135   -9.68388
       O    11.18580    4.43140   -9.72381
      H1    11.53235    5.04312  -10.37422
       H     4.34855    0.13725   -9.34967
       O     3.47269    0.36916   -8.97748
      H1     3.67431    0.13996   -8.04084
       H    12.96441    3.60061   -9.09631
       O    13.46440    3.42203   -8.29496
      H1    14.30978    3.00779   -8.61624
       H     6.58461    3.19738   -8.67852
       O     7.20480    3.29041   -9.43748
      H1     6.52316    3.41996  -10.14435
       H     9.88294   -0.19237   -8.26437
       O     9.65937   -0.13574   -7.31341
      H1     8.84515   -0.63156   -7.22788

