90
frame 2 | Written by MDAnalysis XYZWriter (release 2.4.3)
       H     8.93100   15.51389   -4.59778
       O     9.63199   16.16198   -4.58297
      H1     9.29214   16.92373   -4.09675
       H    12.38733   15.05778    1.23907
       O    11.96923   14.92950    2.07808
      H1    11.68088   15.84703    2.25951
       H    14.69753   16.51117   -4.65578
       O    14.02868   17.13204   -4.26345
      H1    13.73393   16.68390   -3.44378
       H     7.04573   14.55910   -1.72232
       O     7.32159   13.59921   -1.67400
      H1     6.85938   13.20282   -2.37523
       H     7.24169   13.14347    0.49755
       O     7.66323   12.50596    1.06810
      H1     7.16454   12.63529    1.94935
       H     3.40538   15.02439   -2.18301
       O     4.13468   15.65391   -2.29041
      H1     3.67020   16.52108   -2.35011
       H    13.80281   14.07541   -0.57610
       O    12.92158   14.27197   -0.33817
      H1    12.43451   13.55368   -0.75828
       H    10.93502   12.90545   -1.63159
       O    11.37951   12.13719   -1.14983
      H1    10.94468   12.28100   -0.27715
       H    11.60130   14.03738   -7.74268
       O    11.50180   14.30809   -6.77680
      H1    11.80957   15.21588   -6.71062
       H     4.83021   11.26148    0.28393
       O     4.88243   11.59102   -0.58835
      H1     5.77780   12.01240   -0.58441
       H    10.50107   15.75094   -0.36401
       O     9.83802   16.30719    0.08170
      H1    10.35880   17.12137    0.13232
       H    10.87643   12.65473   -5.07009
       O    11.28584   11.91992   -4.62193
      H1    10.50046   11.31215   -4.52852
       H     4.70620   12.56759   -3.43344
       O     5.51754   12.79279   -3.94901
      H1     5.67437   11.97143   -4.38569
       H     9.15256   14.09186   -2.29280
       O    10.11207   14.31843   -2.07889
      H1    10.09120   15.09363   -2.72169
       H     8.39588   10.98970   -5.09325
       O     8.30454   11.11611   -4.14434
      H1     8.64483   12.02017   -4.14745
       H     5.74129   16.27060   -2.10773
       O     6.66941   16.59144   -2.06846
      H1     6.85338   16.92410   -2.99560
       H     9.30926    9.91531   -1.72424
       O     9.90619    9.85501   -1.00430
      H1    10.53520   10.61226   -1.10379
       H     5.24835   18.67758   -0.86583
       O     5.51049   18.31334   -0.00124
      H1     6.03426   17.50012   -0.16007
       H     9.58241   12.54544    1.43020
       O    10.56659   12.49437    1.44550
      H1    10.82733   13.38010    1.64304
       H     7.83545    9.68788   -3.33334
       O     7.66454    9.03663   -2.60788
      H1     8.41404    8.38300   -2.69946
       H    11.08108   16.72889   -6.10073
       O    11.80915   17.10675   -6.73614
      H1    12.63521   17.13348   -6.23122
       H     8.69396    9.34030    0.32015
       O     8.02731    9.31951    1.04188
      H1     7.63316   10.20045    0.85663
       H     7.94421   14.04345   -5.98965
       O     8.01708   13.88614   -5.05092
      H1     7.11144   13.41921   -4.79441
       H     7.63149   16.08215    2.07338
       O     7.28892   15.74949    1.24510
      H1     8.12281   15.83682    0.79379
       H     9.98747   10.02854   -6.88823
       O     9.23859   10.60519   -6.74509
      H1     9.42708   11.25660   -7.47215
       H    12.94713   11.14433   -4.54279
       O    13.92057   11.02666   -4.69643
      H1    13.72261   10.77602   -5.60606
       H     5.24488   16.03007   -4.72717
       O     4.72809   15.74928   -5.51003
      H1     4.38512   16.58549   -5.87598
       H    12.55861   15.65571   -1.60093
       O    12.26331   16.48260   -2.09822
      H1    12.30760   17.14898   -1.39476
       H     7.49728   17.88548   -5.45047
       O     6.84538   17.70505   -4.70680
      H1     6.25988   18.41832   -4.77002
       H     9.25761   17.09606   -1.53101
       O     9.52022   17.50693   -2.36803
      H1    10.42384   17.12649   -2.51689

