90
frame 2 | Written by MDAnalysis XYZWriter (release 2.4.3)
       H   -17.46430   -7.78029   -2.81979
       O   -16.99094   -7.20120   -3.44886
      H1   -16.66599   -7.77862   -4.18719
       H   -15.02017   -4.58763   -3.69901
       O   -15.06316   -3.90459   -2.98086
      H1   -14.97907   -4.39496   -2.16563
       H   -17.57858    2.11748   -7.48525
       O   -18.29011    1.74945   -8.02333
      H1   -18.05515    0.82088   -8.14009
       H   -14.28266    0.46057   -7.59885
       O   -13.75683    1.23916   -7.77379
      H1   -13.49775    1.18315   -8.70680
       H   -14.89708    2.43021    0.87367
       O   -14.95914    1.47290    0.68500
      H1   -15.85952    1.36276    1.04638
       H   -13.83090    0.62113   -2.03755
       O   -14.75752    0.59238   -1.90926
      H1   -14.88669    0.74676   -0.97643
       H   -15.13402   -4.86883   -8.22596
       O   -15.98105   -4.65289   -7.74093
      H1   -16.04457   -3.70676   -7.78580
       H   -18.27360    3.35082  -10.52982
       O   -17.62265    2.64477  -10.40713
      H1   -17.70372    2.38215   -9.48114
       H   -13.84708   -4.24761    0.08578
       O   -12.94166   -4.42682   -0.23485
      H1   -12.56044   -5.04782    0.50270
       H   -15.35052   -0.79338   -5.12730
       O   -15.02624   -1.03415   -5.98827
      H1   -14.06663   -1.28759   -5.75548
       H   -17.57232   -2.88152   -6.20518
       O   -18.25363   -3.09518   -5.52350
      H1   -17.86960   -3.82057   -5.04497
       H   -17.64701    0.52691    1.20430
       O   -17.15019    0.78477    1.99085
      H1   -16.68005   -0.01626    2.31266
       H   -15.67159   -1.32962  -10.36026
       O   -16.59504   -1.11306  -10.11360
      H1   -16.99868   -2.02492  -10.11966
       H   -16.87422    4.08043   -7.03020
       O   -17.79487    4.44924   -7.19247
      H1   -17.57114    4.91572   -8.05811
       H   -15.67388   -4.45368    0.58545
       O   -15.35367   -3.67610    0.04810
      H1   -15.40984   -2.92796    0.59693
       H   -16.53558   -1.45143   -8.37166
       O   -16.69246   -2.13093   -7.62611
      H1   -16.11522   -1.65168   -6.94321
       H   -14.60501   -1.07495    1.14349
       O   -15.36086   -1.41644    1.69555
      H1   -14.82319   -1.89995    2.33559
       H   -18.27976    3.83634    2.60591
       O   -18.44234    3.66475    1.66696
      H1   -17.95023    2.83108    1.50464
       H   -15.19924    2.42217   -6.68975
       O   -16.03785    2.66355   -6.36669
      H1   -15.96179    2.73243   -5.39774
       H   -18.17204   -2.17829   -0.74826
       O   -17.31355   -1.86568   -1.16360
      H1   -16.64607   -2.48180   -0.89490
       H   -12.39949   -2.55030   -5.06254
       O   -12.43235   -2.39075   -6.00747
      H1   -11.63706   -1.86146   -6.27786
       H   -15.78001    2.05579   -2.92297
       O   -15.91186    2.83197   -3.40650
      H1   -16.87880    2.81889   -3.64173
       H   -14.62065   -4.93227   -6.12955
       O   -14.27224   -5.22086   -5.21923
      H1   -13.39839   -4.85483   -5.29499
       H   -18.40200   -1.74280   -4.18550
       O   -18.19634   -0.90402   -3.73663
      H1   -17.83554   -1.26265   -2.87443
       H   -19.23368    1.85896   -4.22592
       O   -19.80602    1.13600   -4.47744
      H1   -19.31332    0.42134   -4.08103
       H   -17.43716   -5.56844   -3.48929
       O   -17.65017   -4.60283   -3.40761
      H1   -16.77704   -4.19317   -3.21822
       H   -12.53226   -2.04661   -2.41005
       O   -12.82732   -2.35436   -3.31719
      H1   -13.65387   -2.80353   -3.15522
       H   -14.32134    4.76107   -1.54566
       O   -15.23892    5.04164   -1.78202
      H1   -15.50719    4.39094   -2.50605
       H   -18.24021    0.29419   -1.02438
       O   -18.59574    0.88859   -0.39116
      H1   -19.55195    0.68600   -0.50002
       H   -19.23344    3.86242   -3.17198
       O   -18.77997    4.01653   -3.95860
      H1   -18.28104    4.90136   -3.74856

