90
frame 2 | Written by MDAnalysis XYZWriter (release 2.4.3)
       H   -11.20776   -2.85722   -0.54424
       O   -11.09264   -1.98883   -0.96224
      H1   -10.30180   -1.63739   -0.53717
       H   -10.24203   -2.06130    8.39707
       O   -10.88031   -1.94968    7.59708
      H1   -10.75586   -2.76758    7.08227
       H   -10.78863    1.86012    3.20046
       O   -11.26502    1.70983    4.01177
      H1   -12.17029    1.58503    3.65458
       H   -13.84708   -4.24761    0.08578
       O   -12.94166   -4.42682   -0.23485
      H1   -12.56044   -5.04782    0.50270
       H   -12.72850   -7.02994    4.89125
       O   -12.91464   -6.17292    4.45759
      H1   -13.86379   -6.22435    4.24393
       H    -7.51145    2.78873    6.05783
       O    -8.05073    2.11756    6.52750
      H1    -8.29306    1.52142    5.80139
       H    -4.89730   -1.71128    2.51549
       O    -4.76625   -2.33324    1.78417
      H1    -5.53852   -2.16499    1.29398
       H   -12.09446   -6.47993    7.49848
       O   -11.14276   -6.39751    7.32294
      H1   -11.02584   -5.44141    7.11779
       H    -7.46682   -6.63488   -0.88777
       O    -8.23713   -6.82637   -0.35366
      H1    -8.14387   -6.17502    0.36191
       H    -8.32106   -7.17640    5.38990
       O    -9.17800   -7.11492    4.96918
      H1    -9.83428   -7.10978    5.63184
       H    -9.07752   -2.68625    3.83615
       O    -8.43703   -2.20293    3.29374
      H1    -8.05751   -2.93246    2.75524
       H   -12.83925    0.15648    0.15387
       O   -12.92105   -0.65672    0.64307
      H1   -12.32220   -1.15903    0.05925
       H    -6.49627    2.44542    3.35114
       O    -7.13441    1.95963    2.77747
      H1    -7.66576    1.43757    3.39487
       H    -9.92096   -1.10211    1.59717
       O    -9.51874   -0.67611    0.79345
      H1    -8.57666   -0.64962    0.98648
       H    -4.37551   -4.25043    2.42300
       O    -4.72814   -5.14843    2.19413
      H1    -4.33482   -5.63763    2.95167
       H    -6.94557   -3.39402    0.40199
       O    -6.94722   -2.44941    0.28398
      H1    -6.49514   -2.33612   -0.52812
       H   -11.75668    0.29713    5.26090
       O   -12.39271   -0.23162    5.71232
      H1   -11.80220   -0.60943    6.39935
       H    -6.17276   -1.94521    9.20180
       O    -6.61469   -1.63392    8.41842
      H1    -7.15482   -0.83923    8.62047
       H    -9.49167    1.03219    1.28139
       O    -9.84302    1.85988    1.68204
      H1    -9.02011    2.34298    1.39054
       H    -6.84812   -5.08719    2.07205
       O    -7.70919   -4.97710    1.57562
      H1    -8.34120   -5.00814    2.30872
       H   -13.69400   -3.54802    6.25560
       O   -13.14914   -4.26427    6.65918
      H1   -12.91488   -4.96219    6.02255
       H   -12.07656   -2.36399    2.85910
       O   -11.41388   -1.76099    2.60264
      H1   -11.92855   -1.24131    1.93158
       H   -10.45264   -4.40506    5.29373
       O   -10.02860   -4.01968    6.03092
      H1    -9.15087   -4.43405    6.01056
       H   -11.79108   -7.28295    1.40806
       O   -11.91227   -6.35726    1.62756
      H1   -12.50434   -6.43346    2.39900
       H    -7.28736   -4.46005    8.18199
       O    -7.53964   -4.69680    7.24616
      H1    -7.69014   -5.64629    7.31190
       H    -5.10341   -5.88316    7.84080
       O    -4.84715   -5.25335    7.15923
      H1    -5.73607   -4.87851    6.98076
       H    -6.68073   -0.41712    4.93046
       O    -5.85897   -0.39771    5.43750
      H1    -6.16016   -0.89533    6.19117
       H   -14.13949   -2.74112    4.04051
       O   -13.90633   -3.02220    3.19289
      H1   -14.47720   -3.82923    2.97957
       H   -10.57952   -5.16792    2.75917
       O    -9.79798   -4.88212    3.22536
      H1    -9.51868   -5.62667    3.79787
       H    -9.49444    0.48144    4.06996
       O    -8.63005    0.15313    4.39466
      H1    -8.62346   -0.72869    4.00415

