90
frame 0 | Written by MDAnalysis XYZWriter (release 2.4.3)
       H     5.68154    0.37335   -4.56597
       O     4.90537    0.45351   -3.95370
      H1     4.59752   -0.50021   -3.94951
       H    -0.80785    0.54656   -0.39531
       O    -1.12291   -0.27033    0.06554
      H1    -1.69470    0.15385    0.70995
       H     3.01973    0.77294   -5.67479
       O     3.45655    0.16174   -6.28437
      H1     4.33006   -0.01721   -5.85680
       H     1.83367    2.11723   -8.88137
       O     1.15500    2.80149   -8.99998
      H1     0.74068    2.56452   -9.82303
       H    -2.15385    4.31821   -3.54480
       O    -1.34337    3.77073   -3.50879
      H1    -0.89514    4.06904   -2.70066
       H    -1.53158   -2.81311   -5.58398
       O    -0.78283   -3.40529   -5.34307
      H1    -0.22447   -3.34748   -6.17729
       H    -3.38500    0.85241   -4.97913
       O    -3.03229    0.15208   -4.44798
      H1    -2.15259    0.49422   -4.17200
       H    -3.34337   -0.35397   -2.55806
       O    -3.37984   -0.82468   -1.68231
      H1    -2.73027   -0.34218   -1.12251
       H     2.38483   -4.79764   -4.40442
       O     3.23430   -4.46580   -4.66057
      H1     3.64783   -4.39165   -3.76316
       H     0.63327   -2.17784   -8.49555
       O     0.40036   -1.27406   -8.79871
      H1    -0.19044   -1.42290   -9.55887
       H     2.62295   -3.15504   -5.78620
       O     2.24381   -2.70641   -6.55323
      H1     2.56060   -1.83010   -6.41656
       H    -3.95725   -1.52407   -4.76857
       O    -3.98377   -2.47348   -5.12996
      H1    -4.64014   -2.36624   -5.83913
       H     3.20456   -1.32875   -2.58589
       O     3.49703   -1.80604   -3.40898
      H1     2.88549   -1.35597   -4.03042
       H    -2.50712   -0.73897   -5.98397
       O    -1.96621   -1.19351   -6.65390
      H1    -1.35343   -0.45791   -6.75982
       H     4.04044    1.79812   -7.39228
       O     4.37313    2.63808   -7.69531
      H1     4.25686    3.19465   -6.88962
       H    -0.22160   -1.42560    1.15674
       O     0.03123   -2.11869    1.83638
      H1     0.01177   -1.50929    2.56644
       H    -3.58111    1.78030   -6.99320
       O    -4.23600    1.81108   -6.29176
      H1    -4.84576    1.13155   -6.61048
       H     1.33418    3.86796    0.32603
       O     0.61319    3.55059    0.87393
      H1     0.25721    2.97328    0.22969
       H    -0.13000    1.75039   -8.07529
       O    -0.72535    0.98616   -7.88528
      H1    -0.35611    0.15398   -8.29905
       H    -3.06059    3.21420   -1.15515
       O    -3.35773    3.89596   -0.47345
      H1    -2.65946    4.54998   -0.65175
       H     0.57024    4.42504   -7.07321
       O     0.16091    4.01284   -6.33908
      H1     0.37756    4.48845   -5.51473
       H     1.14013   -1.83037   -4.03234
       O     1.16547   -1.04996   -4.64532
      H1     1.01667   -1.52018   -5.50793
       H     0.74454   -3.35454   -1.99624
       O     0.33306   -2.69868   -2.55896
      H1     0.12345   -3.30877   -3.29454
       H     0.08261    0.21029   -4.01286
       O    -0.46934    0.85237   -3.53346
      H1    -0.19384    1.64171   -3.96963
       H     3.25149   -0.93455   -0.05850
       O     3.21266   -0.54690   -0.97709
      H1     4.04268    0.05476   -0.90290
       H     2.12729   -0.17854   -9.12266
       O     2.87047    0.36900   -8.77941
      H1     2.83035    0.10010   -7.87000
       H    -2.43716    3.27303   -8.22033
       O    -2.75305    2.43869   -8.57711
      H1    -1.95598    1.80692   -8.47300
       H     0.19695    1.55081   -2.12216
       O     0.32578    1.68496   -1.14340
      H1     1.14882    1.31230   -0.91002
       H    -1.84411   -2.90142   -1.97595
       O    -2.12264   -3.67600   -1.42897
      H1    -2.61276   -3.18207   -0.71345
       H     3.54866    4.30150   -4.98189
       O     3.90717    4.52223   -5.87239
      H1     3.32274    5.21699   -6.16868

