90
frame 2 | Written by MDAnalysis XYZWriter (release 2.4.3)
       H    15.06220    4.96091    3.68724
       O    14.61563    5.49817    4.35715
      H1    13.96369    4.90500    4.73552
       H    11.73850    2.31592    9.27737
       O    12.23280    3.05299    8.81922
      H1    13.10294    3.07048    9.28371
       H    11.82872    1.05309   10.90480
       O    11.20375    0.69493   10.24109
      H1    11.55746   -0.22813   10.26885
       H    13.31952    6.64458   11.77573
       O    13.98027    6.19257   11.27462
      H1    14.75530    6.29309   11.83113
       H     7.47962    3.07607   11.18591
       O     8.44981    3.05936   11.23471
      H1     8.64064    2.22365   10.75931
       H    10.06797    9.13756    7.63561
       O    10.59448    8.50668    8.20555
      H1    10.15095    8.53588    9.07682
       H    10.45888    7.68304   13.96562
       O     9.76642    7.12000   13.61990
      H1    10.28026    6.85480   12.81011
       H    14.87691    2.91239    8.32612
       O    15.10567    3.80778    8.64139
      H1    14.77022    4.41138    8.01916
       H    13.29697   10.11221   11.33111
       O    12.53794    9.74448   10.86167
      H1    12.84942    9.56339    9.92940
       H     9.95828    3.91024   11.11556
       O    10.86525    4.28639   11.31224
      H1    11.38987    4.14530   10.50576
       H    12.24281    7.18990    9.23223
       O    12.98158    6.70320    8.79284
      H1    13.33666    6.15556    9.56427
       H    13.11191    8.63692   13.65453
       O    12.56920    7.95560   13.23832
      H1    12.51800    8.39047   12.36626
       H    11.97497    4.85492    5.36772
       O    12.18420    4.31083    4.63200
      H1    12.53058    3.48957    5.01526
       H     9.39857    5.72019    7.95503
       O    10.03209    4.99843    7.79326
      H1    10.73794    5.29485    8.32077
       H     7.69881    7.79909    3.77786
       O     8.25646    6.97904    3.85622
      H1     7.71248    6.30992    3.31059
       H    13.13963    8.47016    5.73779
       O    13.65586    9.24104    5.84501
      H1    14.54775    8.88842    5.90948
       H    11.07736    0.48245    7.01037
       O    11.97942    0.92137    6.78500
      H1    12.04622    1.71460    7.31615
       H    14.69913    6.36851    6.21460
       O    15.14534    6.48252    7.09101
      H1    14.43081    6.80570    7.60487
       H    11.78394    6.78588    6.54371
       O    12.20086    6.81691    5.65593
      H1    11.47392    6.98324    5.00065
       H     9.19112    3.56375    4.62631
       O     9.91555    3.24553    3.96337
      H1    10.63531    3.86312    4.25687
       H    10.35368    5.97325   10.87156
       O    10.48501    6.92332   10.81332
      H1     9.66682    7.31318   10.43045
       H    14.14793   11.19825    7.94950
       O    13.45480   10.53353    8.25340
      H1    13.40923    9.90068    7.49217
       H     7.71034    7.47930    9.77870
       O     8.17710    8.22580   10.20717
      H1     8.03915    8.02356   11.15456
       H     7.47057    7.13671    5.66761
       O     6.65209    7.32034    6.15643
      H1     5.98497    6.69120    5.83649
       H    12.74974    1.43533    5.39438
       O    13.34894    1.66987    4.63340
      H1    12.92677    1.26484    3.84785
       H     4.89485    4.04685    6.28385
       O     5.40078    4.60018    5.65650
      H1     6.31019    4.41895    5.80799
       H     7.11985    6.65734    7.60607
       O     7.38244    6.33932    8.50207
      H1     6.52900    5.90159    8.72026
       H     8.79267    3.99117    6.44640
       O     8.23876    4.29259    5.75991
      H1     8.51613    5.11347    5.46610
       H     9.83942   10.94960    6.54532
       O     9.19268   10.36100    6.90125
      H1     8.71592   10.93507    7.55234
       H     7.60700    2.34377    6.73073
       O     7.58517    1.54784    6.19617
      H1     7.67348    1.82245    5.25144

