90
frame 2 | Written by MDAnalysis XYZWriter (release 2.4.3)
       H    -3.63406    9.91850   -5.49230
       O    -4.12002    9.10464   -5.76461
      H1    -3.66551    8.76770   -6.53864
       H    -5.76777    7.60594   -2.17054
       O    -6.63644    7.65948   -1.71104
      H1    -6.35943    7.79608   -0.77576
       H   -12.79120    9.32512   -2.10603
       O   -12.30996    8.54351   -2.37253
      H1   -12.83333    8.13225   -3.03407
       H    -6.80176   12.16957   -7.38268
       O    -7.14600   13.01155   -7.67007
      H1    -6.98606   13.54644   -6.91304
       H   -13.67225    6.42050   -4.18631
       O   -13.29500    5.58702   -4.49345
      H1   -13.65721    5.67066   -5.33791
       H    -8.78972    8.18682   -7.17960
       O    -8.14612    7.91324   -6.47631
      H1    -8.63273    7.33811   -5.89029
       H    -6.77480    5.83449   -9.02474
       O    -7.26009    6.63949   -9.30497
      H1    -7.66490    6.86009   -8.46368
       H    -7.35681    4.72664   -0.66665
       O    -6.46993    5.13239   -0.76613
      H1    -6.77636    5.97120   -1.25064
       H   -12.06786   13.39845   -3.21590
       O   -11.17084   13.50265   -2.84209
      H1   -11.07129   12.60626   -2.43796
       H    -9.62456   11.74450   -1.50058
       O   -10.45636   11.23206   -1.43263
      H1   -10.54793   10.72977   -2.22340
       H   -11.73509    9.56371   -6.21092
       O   -11.48227    8.91242   -5.54537
      H1   -10.78862    9.45534   -5.16645
       H    -7.07914   10.84264    0.41371
       O    -7.17048   11.83877    0.36098
      H1    -6.98428   11.93553    1.30324
       H    -8.51348   11.31579   -3.81818
       O    -8.35542   11.98915   -3.16045
      H1    -7.42990   11.83201   -3.00729
       H    -8.94722   14.79429   -4.88214
       O    -8.18120   14.25202   -5.19907
      H1    -8.11031   13.43662   -4.62679
       H   -10.52163   15.01301   -3.63135
       O   -10.07543   15.87517   -3.70033
      H1   -10.89729   16.39279   -3.53917
       H    -4.81320    7.88437   -4.19809
       O    -4.43371    7.52210   -3.38275
      H1    -4.01558    6.78357   -3.82070
       H   -10.61963    7.04093   -4.83103
       O    -9.86519    6.45253   -4.87032
      H1    -9.72781    6.16059   -3.94866
       H    -9.12981   14.05539   -6.98451
       O    -9.88745   14.46607   -7.45108
      H1    -9.94855   15.30270   -6.94252
       H    -5.79346   11.24868   -1.68445
       O    -5.83049   10.92523   -2.61783
      H1    -4.89589   10.63546   -2.77610
       H    -8.50854    9.23514   -5.10490
       O    -9.16189    9.67836   -4.53929
      H1    -9.00549    9.27513   -3.66821
       H   -10.27884    9.83411   -8.18337
       O    -9.57197    9.22609   -8.42147
      H1    -8.98422    9.79102   -8.93009
       H    -8.27048    8.33647   -1.94389
       O    -9.25837    8.49639   -2.06966
      H1    -9.52033    8.99754   -1.28968
       H    -5.58937   11.93087   -4.87171
       O    -5.34823   12.78191   -5.23765
      H1    -5.61482   13.47547   -4.63433
       H   -12.85699   13.50554   -6.28226
       O   -12.58424   13.51083   -7.23660
      H1   -11.65923   13.93526   -7.15014
       H   -13.37675    8.90683   -4.66232
       O   -14.20528    8.36417   -4.46631
      H1   -14.75679    8.44839   -5.23456
       H   -12.58448   11.36436   -7.53189
       O   -12.15082   10.46449   -7.57510
      H1   -12.84164    9.96648   -8.07860
       H   -10.80101    5.83395   -1.89446
       O    -9.83328    5.74178   -2.14380
      H1    -9.58813    6.66253   -2.13724
       H    -5.71270   10.04428   -6.96210
       O    -6.58364   10.11681   -7.28948
      H1    -6.95462    9.32858   -6.85513
       H   -13.45287   10.53329   -0.17543
       O   -13.12802   11.20063   -0.87373
      H1   -12.17000   11.11705   -0.71280
       H    -8.98031    3.54138   -5.51070
       O    -9.86798    3.90547   -5.78547
      H1    -9.77864    4.88577   -5.73362

