90
frame 2 | Written by MDAnalysis XYZWriter (release 2.4.3)
       H   -11.50953    8.86940  -10.67308
       O   -11.12457    8.02443  -10.40795
      H1   -10.36258    8.21110   -9.85720
       H   -12.30570    4.38453  -11.28707
       O   -12.75223    3.67020  -11.83690
      H1   -13.61875    4.05255  -12.12180
       H   -10.25672    7.37222  -11.90123
       O    -9.40294    7.21616  -12.44391
      H1    -9.73134    7.04436  -13.35582
       H   -12.41857   10.50580  -18.45508
       O   -12.85148   10.99565  -19.11616
      H1   -13.65646   10.53317  -19.26229
       H   -13.05211    8.78470  -14.24159
       O   -13.83244    9.19699  -13.83051
      H1   -14.50799    9.00739  -14.46129
       H    -9.18423   13.20230  -14.43301
       O    -9.70429   12.57722  -14.97972
      H1   -10.52542   12.37615  -14.43026
       H   -12.40633   10.31250  -11.90662
       O   -12.55765   10.26252  -10.96101
      H1   -12.52234   11.20219  -10.66804
       H   -16.52432    5.78165  -14.17591
       O   -17.28954    6.30053  -14.60190
      H1   -18.03753    5.80033  -14.16616
       H   -14.32944    5.67885  -13.29855
       O   -15.06263    4.97238  -13.38664
      H1   -14.77390    4.48521  -14.16974
       H   -15.11649   10.86448   -9.22668
       O   -14.92159   11.60691   -8.65883
      H1   -15.75720   12.16270   -8.77531
       H   -10.92365    7.02335  -15.32759
       O   -11.06089    7.91640  -14.96820
      H1   -11.29865    8.38842  -15.80893
       H   -15.71832    7.30610   -8.94726
       O   -16.38158    6.69420   -8.61682
      H1   -17.11514    6.95388   -9.14225
       H   -17.24212    7.04178  -17.39055
       O   -17.31492    6.03687  -17.38331
      H1   -17.21297    5.82536  -16.45317
       H    -9.38559    8.33504  -15.75535
       O    -8.57360    8.14417  -16.26435
      H1    -8.14654    7.45259  -15.69913
       H   -10.88853    9.00880  -17.82521
       O   -11.36663    9.49775  -17.12569
      H1   -10.83535   10.27298  -16.95289
       H   -15.64292   11.59793  -14.97853
       O   -16.39775   11.19859  -14.49017
      H1   -16.20261   11.34273  -13.55824
       H   -13.77524    7.44196  -12.96001
       O   -13.16905    6.69112  -12.94016
      H1   -12.38844    7.03603  -13.40417
       H   -12.72434   12.30710  -14.13229
       O   -11.94746   12.40877  -13.56182
      H1   -11.86148   13.37263  -13.64680
       H   -15.96910    8.72837  -18.93052
       O   -15.34308    8.84473  -19.64010
      H1   -15.15825    7.92291  -19.77539
       H   -13.76718   11.18943  -15.60763
       O   -13.75358   12.13006  -15.47744
      H1   -13.06572   12.47603  -16.02287
       H   -10.96698    5.02873  -16.14976
       O   -10.94989    5.35730  -15.23510
      H1   -10.71447    4.54283  -14.79105
       H   -11.02860    5.03951   -9.47562
       O   -11.95499    5.33732   -9.60332
      H1   -11.76755    6.23662   -9.87904
       H   -13.67351   12.91660   -9.61273
       O   -13.22499   12.96805  -10.47541
      H1   -12.28506   13.14793  -10.28679
       H   -10.54394   13.06272  -16.46883
       O   -11.13915   12.80305  -17.15784
      H1   -10.65690   13.13502  -17.91900
       H   -17.82276    9.26877  -10.80636
       O   -17.19022    9.94701  -10.60344
      H1   -17.68020   10.55508  -10.04457
       H   -17.69321    9.21666  -17.94627
       O   -17.04947    8.50579  -17.67829
      H1   -16.81879    8.73519  -16.78657
       H   -16.07326   11.28164  -11.26929
       O   -15.58650   11.72075  -11.95189
      H1   -14.74953   11.92263  -11.49012
       H   -19.27801   12.53993  -13.94327
       O   -18.70440   12.75397  -14.67944
      H1   -17.83471   12.36592  -14.41491
       H   -16.30588    9.54639  -14.83875
       O   -16.11390    8.71061  -15.28230
      H1   -16.75081    8.05819  -14.94111
       H   -15.31837    9.11900  -10.22804
       O   -14.48553    9.07051   -9.67680
      H1   -13.93680    9.57522  -10.26417

