90
frame 2 | Written by MDAnalysis XYZWriter (release 2.4.3)
       H   -17.99816   11.97494   -7.85929
       O   -17.74666   12.09617   -8.81375
      H1   -17.68413   13.09638   -8.77988
       H   -16.26198   15.70608    2.92543
       O   -16.29250   14.84068    2.60601
      H1   -17.12243   14.62978    2.26137
       H   -17.39716   15.58193   -2.48110
       O   -17.53362   15.13066   -3.31569
      H1   -16.99882   14.34494   -3.16462
       H   -12.41175   18.49508   -3.27644
       O   -12.20570   17.54081   -3.31294
      H1   -12.20112   17.32794   -2.37866
       H   -16.54159   16.85417   -6.06408
       O   -16.13296   16.09435   -5.67213
      H1   -16.93225   15.78259   -5.15718
       H   -17.25978   19.18131   -7.11590
       O   -17.32417   18.52008   -6.40727
      H1   -18.19312   18.64113   -5.94903
       H   -12.06786   13.39845   -3.21590
       O   -11.17084   13.50265   -2.84209
      H1   -11.07129   12.60626   -2.43796
       H   -18.83684   17.74044   -2.35514
       O   -17.92220   17.51337   -1.94675
      H1   -18.04832   18.06776   -1.13082
       H   -16.72330    9.92686   -3.25917
       O   -15.99342    9.72833   -2.65660
      H1   -15.29720    9.40666   -3.22882
       H   -13.85715   18.10629    1.12880
       O   -14.42991   18.23908    0.34166
      H1   -14.34571   19.19366    0.29359
       H   -18.93637   11.23388   -3.05571
       O   -18.29219   10.86418   -3.67211
      H1   -18.70679   11.02033   -4.53570
       H   -12.53801   15.80429   -7.84104
       O   -12.23394   16.65733   -7.55331
      H1   -12.96097   16.88291   -6.89904
       H   -19.58953   13.09394   -0.42861
       O   -18.96414   13.59034    0.18316
      H1   -18.25268   13.07276   -0.11184
       H   -15.41793   16.34334   -3.47754
       O   -14.58248   16.02948   -3.07663
      H1   -13.98594   16.68720   -3.42888
       H   -16.34750   14.98145   -8.15233
       O   -16.66730   14.60219   -8.99301
      H1   -17.52439   15.07644   -9.04990
       H   -15.57891   12.68398   -0.90045
       O   -16.10215   12.89769   -0.10823
      H1   -15.62557   13.73654    0.06963
       H   -19.76636   11.67933   -6.75021
       O   -18.97101   11.31864   -6.26149
      H1   -19.06397   10.37453   -6.25959
       H   -16.00980   11.76705    1.54628
       O   -16.27344   10.92599    1.92801
      H1   -16.05797   11.10012    2.85275
       H   -14.84931   16.56301   -0.19644
       O   -14.95531   15.59495   -0.34261
      H1   -14.92980   15.52755   -1.34444
       H   -17.99119    9.26425    0.11047
       O   -18.32159   10.17213    0.19700
      H1   -17.88724   10.45265    1.05514
       H   -14.74138   11.82092   -6.84604
       O   -14.71148   11.45925   -5.96307
      H1   -15.21814   10.68956   -5.95295
       H   -12.85699   13.50554   -6.28226
       O   -12.58424   13.51083   -7.23660
      H1   -11.65923   13.93526   -7.15014
       H   -18.35665    7.67890   -3.66640
       O   -19.09015    8.24014   -3.78715
      H1   -18.78707    9.09992   -3.66077
       H   -16.71378   18.99119   -4.26918
       O   -16.32508   19.15293   -3.38855
      H1   -16.85714   18.46322   -2.86912
       H   -14.28896   19.28169   -6.95142
       O   -13.99166   18.63331   -6.29284
      H1   -14.87109   18.30055   -6.01992
       H   -17.84651   17.47762    1.03453
       O   -17.22050   18.19393    1.11611
      H1   -16.43234   17.68342    1.37092
       H   -13.67037   14.61209    0.61917
       O   -13.14930   14.07753    1.27409
      H1   -12.33531   14.08609    0.75856
       H   -16.91037   12.08150   -3.62739
       O   -16.14513   12.63923   -3.67439
      H1   -15.71255   12.16146   -4.38511
       H   -13.05810   17.08691   -0.60869
       O   -12.17263   16.77771   -0.76206
      H1   -11.74239   17.57626   -0.46037
       H   -13.87283   14.72284   -4.17869
       O   -13.48272   13.88983   -4.58827
      H1   -14.26294   13.34211   -4.63182

