90
frame 2 | Written by MDAnalysis XYZWriter (release 2.4.3)
       H    18.56714   -9.18164   16.49131
       O    19.44533   -9.24041   16.75644
      H1    19.85239   -9.84201   16.09565
       H    11.68862  -12.58014   18.88519
       O    11.37932  -11.73074   19.16992
      H1    12.15318  -11.49320   19.75720
       H     9.94676   -2.85152   15.71468
       O     9.06550   -2.93102   16.14071
      H1     9.23293   -3.84124   16.53255
       H     7.20593   -8.85280   18.61627
       O     6.30596   -8.96048   18.92483
      H1     5.87015   -9.62797   18.39519
       H    10.94138   -4.38276   14.69854
       O    11.56699   -3.88212   15.19830
      H1    12.11670   -4.54648   15.68933
       H    15.78258   -8.93639   19.11808
       O    15.33842   -8.80493   18.27995
      H1    16.04778   -8.43810   17.69277
       H    17.70778  -13.32479   17.72687
       O    17.95024  -13.78169   18.51915
      H1    18.34352  -13.17014   19.08230
       H    14.36551  -11.42157   13.38865
       O    15.00545  -11.99642   13.75025
      H1    14.54581  -12.40007   14.63624
       H     8.23527   -6.08460   16.89636
       O     9.03929   -5.74220   17.28410
      H1     9.01104   -6.36465   18.04787
       H    19.46939   -7.12230   18.78092
       O    18.99734   -7.21062   19.57627
      H1    18.24662   -6.66125   19.26673
       H    12.84806  -13.36792   15.32088
       O    13.73695  -13.25720   15.69218
      H1    13.56049  -13.21403   16.61312
       H     9.40694   -8.63825   18.41980
       O     8.92742   -8.18620   19.15552
      H1     9.00588   -8.84435   19.90644
       H    17.92063   -6.79661   12.65338
       O    17.65552   -7.02203   13.59689
      H1    17.39713   -7.95286   13.50632
       H     8.80859  -11.32859   15.15932
       O     8.85080  -12.27393   14.99987
      H1     8.20522  -12.56231   15.66239
       H    12.55069   -3.14038   18.35837
       O    11.75820   -3.72999   18.24740
      H1    11.86394   -4.24688   19.09384
       H    17.16325   -6.90410   15.42777
       O    17.19829   -7.11083   16.37217
      H1    18.09598   -6.88365   16.50533
       H    15.56562   -9.30624   14.79477
       O    16.21335  -10.00926   14.83832
      H1    15.78332  -10.71981   14.34186
       H    11.16600   -8.73362   13.04400
       O    11.19023   -9.64995   13.36474
      H1    10.54620   -9.52132   14.05739
       H    11.96459   -5.34550   17.42231
       O    11.98195   -6.24115   17.11131
      H1    11.05264   -6.32091   16.91383
       H     6.51313  -12.28715   18.12511
       O     7.24090  -12.14396   17.50001
      H1     8.03997  -12.46259   18.04349
       H    12.29288   -7.45501   18.02858
       O    12.50580   -8.30294   18.48953
      H1    13.25381   -8.68908   17.98672
       H    18.34083  -12.67946   15.49620
       O    17.65608  -12.34805   16.15161
      H1    17.45092  -11.48072   15.75316
       H    13.13332   -9.04157   14.25014
       O    13.98980   -8.71745   14.53033
      H1    13.68996   -7.86315   14.86938
       H    11.26273   -9.34369   17.79281
       O    10.41765   -9.76209   17.47859
      H1    10.63815  -10.63130   17.88560
       H     7.33851   -9.41442   14.98017
       O     8.23919   -9.21378   14.58701
      H1     8.05464   -8.71533   13.78205
       H    14.15717   -1.82310   17.42173
       O    13.96444   -2.18150   18.28419
      H1    14.77697   -2.61673   18.51730
       H     9.05973  -14.00627   19.46910
       O     9.31084  -13.51369   18.70799
      H1     9.93909  -12.81550   19.14158
       H    15.43337   -5.64319   20.10532
       O    16.17784   -5.37156   19.58936
      H1    16.17068   -5.75292   18.75289
       H    15.76097  -14.55363   20.02999
       O    15.33961  -13.80441   19.57951
      H1    16.04834  -13.63665   18.93576
       H    12.58038  -14.67189   18.01436
       O    12.78789  -13.77277   18.24267
      H1    13.45214  -13.88291   18.95386

