90
frame 2 | Written by MDAnalysis XYZWriter (release 2.4.3)
       H    13.20646   -8.38918   -7.54509
       O    13.90279   -8.41103   -8.24822
      H1    14.42733   -7.62470   -8.15771
       H    17.00394   -6.25945   -4.28483
       O    17.29967   -6.82119   -3.58205
      H1    18.02555   -6.27114   -3.21260
       H    14.20874   -4.40778   -4.39765
       O    14.03943   -4.81678   -5.24901
      H1    13.28256   -5.41547   -5.08125
       H    13.00364    2.52208   -6.72606
       O    12.81754    1.67041   -6.31899
      H1    13.29726    1.10378   -6.97914
       H    18.42719   -5.31101  -13.90004
       O    18.16442   -5.36814  -12.95556
      H1    17.55683   -4.52629  -12.91354
       H    14.54623   -1.20702  -11.24798
       O    15.02860   -0.44785  -10.96327
      H1    14.51588   -0.14067  -10.21310
       H    13.91737   -5.01179   -9.45546
       O    13.56760   -4.10257   -9.45568
      H1    12.55501   -4.24845   -9.58185
       H    16.97625   -1.13388  -10.68913
       O    17.73429   -1.57720  -11.03970
      H1    17.74449   -2.27043  -10.32670
       H    15.74589    0.44075   -3.33261
       O    15.12423   -0.32668   -3.09593
      H1    14.22424    0.05275   -3.08725
       H    16.18900   -6.48303   -7.37440
       O    15.82507   -6.57436   -6.45091
      H1    15.42102   -5.72159   -6.16504
       H    19.16379   -3.72956   -6.19811
       O    18.37212   -4.07534   -6.63841
      H1    17.78599   -3.44892   -6.14678
       H    13.89913   -3.31851  -10.91530
       O    14.09838   -3.01200  -11.84188
      H1    13.19885   -2.97854  -12.22028
       H    17.49749    1.87288  -10.82888
       O    16.83911    2.31743  -10.26566
      H1    17.37486    2.87155   -9.62654
       H    18.01260   -0.53442   -6.91181
       O    17.77887   -1.48774   -6.69623
      H1    17.18129   -1.67621   -7.41978
       H    14.96017   -0.10509   -8.06128
       O    13.97093    0.01246   -8.07799
      H1    13.72784   -0.89692   -7.87574
       H    15.69125   -5.84036   -9.86150
       O    16.10431   -5.53151   -9.05309
      H1    16.96095   -5.28689   -9.33618
       H    18.73953   -3.70017   -8.47523
       O    18.36330   -3.80040   -9.34386
      H1    19.25963   -3.70958   -9.72113
       H    17.00582   -2.20404  -12.56910
       O    16.80878   -2.86592  -13.31473
      H1    15.91663   -2.58687  -13.57030
       H    15.27096   -2.66135   -7.74713
       O    15.87973   -2.21572   -8.32161
      H1    16.34029   -3.09550   -8.66558
       H    12.97589    1.65820  -12.00733
       O    13.64808    1.24641  -12.60462
      H1    14.16569    0.66284  -11.92680
       H    10.40923   -3.75720   -9.21535
       O    10.96000   -4.35287   -9.74766
      H1    10.59587   -4.42083  -10.64878
       H    13.68839   -1.90035   -4.12743
       O    12.89075   -2.29945   -3.74587
      H1    12.31915   -2.42722   -4.53368
       H    13.52784   -3.57703   -6.37108
       O    13.50977   -2.91355   -7.04040
      H1    13.56182   -3.45947   -7.84281
       H    10.96686   -3.11799   -6.53317
       O    10.05180   -3.47342   -6.46525
      H1     9.56173   -2.60624   -6.56926
       H    19.05777   -6.28290   -6.56069
       O    19.46119   -7.07792   -6.92093
      H1    19.41327   -7.72023   -6.15760
       H    19.21630    1.58280   -7.28690
       O    18.37797    1.29945   -6.87498
      H1    18.70304    1.10437   -5.91555
       H    15.69513   -1.55577   -4.11812
       O    16.19897   -2.18778   -4.62564
      H1    16.62425   -1.73945   -5.31125
       H    12.96441    3.60061   -9.09631
       O    13.46440    3.42203   -8.29496
      H1    14.30978    3.00779   -8.61624
       H    19.29675   -1.63970   -9.26354
       O    19.70021   -1.09276   -8.52317
      H1    19.15992   -1.45423   -7.78657
       H    14.79160   -6.82419  -11.61367
       O    14.18592   -6.80340  -10.85060
      H1    14.30378   -7.70599  -10.42196

