90
frame 2 | Written by MDAnalysis XYZWriter (release 2.4.3)
       H    -7.88604    1.54426    8.21512
       O    -7.63570    1.21637    9.09478
      H1    -8.30564    1.71903    9.58283
       H   -10.24203   -2.06130    8.39707
       O   -10.88031   -1.94968    7.59708
      H1   -10.75586   -2.76758    7.08227
       H    -5.26698   -3.05446   12.16567
       O    -5.87787   -2.32932   12.47406
      H1    -5.59587   -1.47086   12.05589
       H   -13.23555   -0.29618   10.31055
       O   -12.82607   -0.58708    9.50727
      H1   -13.45912   -1.24934    9.16314
       H    -6.30950    3.57676   10.80656
       O    -5.71905    3.04096   10.23832
      H1    -6.39713    2.50122    9.77570
       H    -8.91500    2.98940   14.94754
       O    -8.26808    2.81886   14.24723
      H1    -7.78698    2.08699   14.71599
       H    -7.51145    2.78873    6.05783
       O    -8.05073    2.11756    6.52750
      H1    -8.29306    1.52142    5.80139
       H   -12.87989    0.62190    8.23118
       O   -12.86184    1.37369    7.65150
      H1   -12.68712    0.86932    6.84215
       H   -10.88716    1.06836   13.49212
       O   -10.69788    0.12579   13.75170
      H1    -9.93282   -0.04671   13.18170
       H   -12.60656   -5.64813   10.23748
       O   -13.19871   -6.33378   10.08896
      H1   -13.17187   -6.54177    9.13334
       H    -9.07972   -4.29673   13.81094
       O    -8.82641   -3.78719   14.60155
      H1    -9.68035   -3.64172   14.99099
       H   -11.75668    0.29713    5.26090
       O   -12.39271   -0.23162    5.71232
      H1   -11.80220   -0.60943    6.39935
       H    -8.70298    2.48866   12.48222
       O    -8.61394    2.40847   11.50707
      H1    -9.55153    2.51565   11.30548
       H    -6.30580   -5.56994   13.89196
       O    -6.19972   -5.29827   12.96963
      H1    -6.96312   -5.79578   12.64081
       H    -5.55149   -1.77681   14.17419
       O    -5.39130   -1.26725   15.04482
      H1    -5.74542   -1.93373   15.63027
       H    -9.20427    0.80023   16.15888
       O   -10.14368    0.72802   16.39903
      H1   -10.37203    0.19727   15.60876
       H    -6.17276   -1.94521    9.20180
       O    -6.61469   -1.63392    8.41842
      H1    -7.15482   -0.83923    8.62047
       H    -9.21573   -1.23363   10.89387
       O    -9.29219   -1.28194    9.93218
      H1    -9.45594   -0.37097    9.71793
       H   -15.37555   -3.30188   12.86251
       O   -15.02746   -3.09199   11.98182
      H1   -14.10353   -3.38851   11.97281
       H    -7.80760   -2.91170    9.63843
       O    -7.80487   -3.63523   10.26752
      H1    -7.66471   -3.20812   11.10649
       H    -5.73963    1.03055   11.99125
       O    -5.74067    0.15468   11.59227
      H1    -6.20884    0.45379   10.77324
       H    -7.28736   -4.46005    8.18199
       O    -7.53964   -4.69680    7.24616
      H1    -7.69014   -5.64629    7.31190
       H   -12.04974   -2.64279   10.76381
       O   -12.13716   -3.55254   11.16087
      H1   -11.22686   -3.70964   11.25830
       H    -8.18387   -1.71947   13.19629
       O    -8.44387   -0.97820   12.62738
      H1    -7.72911   -0.32671   12.56534
       H   -13.53919    1.20576   11.68869
       O   -13.75222    1.97597   11.13824
      H1   -14.43089    2.41440   11.58652
       H   -12.37225    2.71100   12.06977
       O   -11.44303    2.89065   12.25134
      H1   -11.45171    3.87600   12.41080
       H    -6.68073   -0.41712    4.93046
       O    -5.85897   -0.39771    5.43750
      H1    -6.16016   -0.89533    6.19117
       H    -6.98485    0.92805   16.44018
       O    -7.40735    0.64094   15.62880
      H1    -6.83216   -0.01202   15.23379
       H   -12.76507   -0.81914   12.44487
       O   -13.66317   -0.55123   12.24066
      H1   -14.18910   -1.33505   12.14329
       H    -8.96410   -4.65486   11.11440
       O    -9.65406   -4.68177   11.78556
      H1    -9.60112   -5.62316   12.11240

