90
frame 2 | Written by MDAnalysis XYZWriter (release 2.4.3)
       H    13.50904  -18.56851    2.26258
       O    14.08917  -18.12147    1.61707
      H1    14.05155  -17.24436    2.01710
       H     7.87317  -15.94323    4.92365
       O     8.24281  -15.34368    5.63384
      H1     9.09190  -15.02881    5.27373
       H    11.36607  -14.54991   -3.00508
       O    11.05447  -15.26174   -2.42358
      H1    11.42032  -15.98351   -2.93432
       H     6.47816  -18.93026    6.97331
       O     5.87556  -18.20369    6.71444
      H1     6.34912  -17.80254    5.92317
       H     7.63134  -13.22274    3.44683
       O     8.44678  -12.65918    3.44426
      H1     8.07854  -11.77534    3.07093
       H     9.74708  -16.80847    7.64095
       O     8.80020  -17.07618    7.65574
      H1     8.35604  -16.40600    7.01650
       H    11.56978  -13.34763    1.81681
       O    12.52272  -13.04954    1.93224
      H1    12.34016  -12.33785    2.60093
       H    14.45267  -18.45232    5.65237
       O    14.03086  -19.38283    5.45408
      H1    13.71469  -19.56548    6.36709
       H     9.99667  -16.71094    0.07861
       O     9.43258  -16.48631    0.84177
      H1     9.60278  -15.52207    0.97079
       H    16.36269  -15.58171    0.32245
       O    16.57845  -15.17568    1.18938
      H1    16.30273  -15.87150    1.81349
       H     8.85233  -18.08854    1.99419
       O     8.11047  -18.72967    2.00084
      H1     7.69174  -18.48851    1.14867
       H    13.47248  -14.66649    2.66880
       O    13.59225  -15.59619    2.87583
      H1    12.71194  -15.87803    2.63502
       H     7.93668  -13.05170    7.15184
       O     8.23725  -12.40181    6.43785
      H1     8.06186  -12.85534    5.64038
       H    14.24159  -16.30946    4.95807
       O    15.10230  -16.67632    5.26477
      H1    15.42819  -17.02043    4.37412
       H    17.45997  -18.93890    3.76691
       O    17.58139  -18.15935    3.19345
      H1    18.55443  -18.26397    3.11302
       H    16.51816  -19.60513    5.84716
       O    17.21881  -18.93923    6.00948
      H1    16.96763  -18.44000    6.77756
       H    14.33418  -15.65194    7.82839
       O    14.68784  -16.35781    8.43827
      H1    14.23210  -16.15038    9.27377
       H    14.72619  -17.48963   -0.48358
       O    14.81567  -16.82977   -1.18653
      H1    14.31835  -16.08215   -0.75358
       H     6.22868  -14.68946    4.45003
       O     6.45269  -14.30061    3.56120
      H1     5.86635  -14.81322    3.01064
       H    12.00705  -16.27454    6.98362
       O    11.51528  -17.03790    7.30789
      H1    11.88233  -17.30690    8.18991
       H    10.64765  -15.37685    3.93057
       O    10.51413  -14.53484    4.47845
      H1     9.82425  -14.05071    3.96568
       H     5.94601  -17.07838    3.60948
       O     6.71359  -17.36123    4.08994
      H1     7.16015  -17.88816    3.43739
       H    10.72043  -16.94202    2.23192
       O    11.18338  -16.54798    2.96006
      H1    11.59571  -17.33614    3.34886
       H    12.91315  -13.96198    7.20361
       O    13.07583  -14.45173    6.37552
      H1    12.24434  -14.16405    5.94503
       H     9.34485  -13.23190    2.01992
       O     9.90716  -13.68495    1.32428
      H1     9.39701  -13.49376    0.50022
       H    13.27513  -13.98031    0.09857
       O    13.32198  -14.88105   -0.23814
      H1    12.60369  -14.77050   -0.91208
       H    17.09783  -14.24664    4.58978
       O    16.29726  -13.79007    4.42053
      H1    15.58158  -14.36369    4.69006
       H     7.35683  -18.52026   -1.14872
       O     6.79606  -18.24862   -0.40237
      H1     6.24513  -19.05146   -0.23283
       H     9.12577  -18.77836    4.95555
       O     9.14081  -19.05065    5.91405
      H1     9.26372  -18.15327    6.33776
       H    10.07862  -18.66299   -1.24621
       O    10.90472  -18.43923   -0.76461
      H1    11.41940  -18.03750   -1.49840

