90
frame 4 | Written by MDAnalysis XYZWriter (release 2.4.3)
       H    -6.39181    4.43713   10.48580
       O    -5.40730    4.59529   10.60955
      H1    -5.05904    3.84352   11.06181
       H    -8.21926    1.28508   12.13443
       O    -7.83009    0.41708   12.27728
      H1    -7.32332    0.48592   13.10509
       H    -4.00929   -3.06578   12.82989
       O    -3.95409   -2.12347   12.60244
      H1    -3.03658   -2.08005   12.39355
       H    -0.42446    4.38667   13.18589
       O    -0.76046    4.46420   14.07028
      H1    -0.44168    3.78534   14.67906
       H    -4.71651    3.60650   16.93692
       O    -3.80809    3.38973   17.28799
      H1    -3.30442    4.16914   16.98056
       H    -2.14852    4.57473   10.03147
       O    -2.69930    3.94013    9.45900
      H1    -3.59274    3.94647    9.80549
       H    -0.88744   -0.89284   13.08371
       O    -1.39909   -0.84400   12.25857
      H1    -1.72025    0.09245   12.33555
       H    -8.87666    3.38258   10.84521
       O    -9.15925    2.77687   11.51592
      H1    -9.94388    2.25253   11.15959
       H    -7.55343    1.58579   14.95357
       O    -6.85040    2.12653   14.67027
      H1    -7.15720    2.92551   14.11819
       H     0.02122    6.02362    9.20726
       O    -0.62855    5.94480    9.98083
      H1    -0.52176    6.73577   10.56654
       H    -5.17052    6.81692   10.63575
       O    -5.65390    7.50124   10.16805
      H1    -4.91038    7.82938    9.53878
       H     0.10839    0.88623   14.86486
       O     0.11942    1.74448   15.25659
      H1    -0.19307    1.61118   16.16235
       H    -8.21222    5.22259    9.41763
       O    -8.04451    4.27551    9.44411
      H1    -7.43283    4.11757    8.71552
       H     1.38012   -1.31082   14.45440
       O     0.40635   -1.16140   14.40059
      H1     0.02876   -1.74595   15.05592
       H     0.25593   -1.13134   11.43479
       O     1.17431   -1.19604   11.12417
      H1     1.06544   -1.87013   10.42383
       H    -5.18104    5.23496    8.06312
       O    -5.88932    4.95114    7.45482
      H1    -5.41702    4.59834    6.72165
       H    -5.56714   -1.07938   13.47543
       O    -6.23636   -0.78643   14.12644
      H1    -6.94791   -1.42160   14.01721
       H    -6.92464   -2.10840   10.38864
       O    -6.61439   -2.96799   10.80865
      H1    -6.19419   -2.72874   11.63021
       H    -5.11016    1.73993   15.06224
       O    -4.18213    1.45839   15.19947
      H1    -3.76363    2.10861   15.85094
       H    -5.94546    1.59888    6.88154
       O    -5.86851    1.38766    5.95928
      H1    -4.99385    1.76155    5.79648
       H    -6.88487    5.42051   13.48655
       O    -7.17669    4.62628   13.04421
      H1    -6.57187    4.49247   12.30521
       H    -1.16476    2.71396    8.46874
       O    -0.65116    2.39531    7.68898
      H1    -0.24503    3.06970    7.23098
       H     1.33834    0.60798   11.34538
       O     1.59233    1.56455   11.35641
      H1     1.77166    1.89671   10.45460
       H    -4.97043   -1.25110   15.77543
       O    -4.61414   -1.14784   16.65396
      H1    -4.10687   -0.34726   16.56294
       H    -2.04034    2.25905   13.10741
       O    -2.50565    1.53123   12.71996
      H1    -3.07387    1.19704   13.44262
       H    -8.43379   -0.55665    9.28140
       O    -7.60424   -0.65726    9.77264
      H1    -7.72546   -0.22690   10.69067
       H    -6.85982    3.20923   17.82357
       O    -6.46597    3.59427   17.02286
      H1    -6.78531    3.08856   16.27775
       H    -4.02564    1.51892   11.85533
       O    -4.82149    1.79503   11.43018
      H1    -5.41289    1.01900   11.47971
       H     0.18767    4.80015   11.02492
       O     0.54829    4.11465   11.59943
      H1     0.37904    3.22324   11.29687
       H    -6.83668    0.80141    8.68127
       O    -6.25015    1.60068    8.58984
      H1    -5.61984    1.41302    9.31606

