90
frame 2 | Written by MDAnalysis XYZWriter (release 2.4.3)
       H     6.81750   10.78906   -8.84875
       O     6.81346   11.66918   -9.26734
      H1     6.23582   12.14908   -8.62388
       H     8.50023   12.27202   -8.82849
       O     9.38024   12.54297   -8.57047
      H1     9.17251   13.38605   -8.08194
       H     2.65191   10.05792  -12.47955
       O     3.31997   10.51691  -13.03105
      H1     3.98971   10.75541  -12.32675
       H     2.30613    8.26498   -8.67108
       O     1.45649    8.19502   -9.15028
      H1     1.64497    7.51478   -9.80964
       H     6.10993    7.70514   -6.02578
       O     6.03815    7.77531   -6.97419
      H1     6.64243    7.05911   -7.27089
       H     1.27103   15.21485   -6.53125
       O     0.58619   15.47588   -7.21079
      H1     0.13194   16.03652   -6.57578
       H    -0.34216   12.74344   -8.79494
       O    -0.59212   13.03112   -7.87023
      H1    -0.31660   13.94797   -7.77487
       H     3.21722   14.53252   -5.16395
       O     2.32683   14.33035   -5.44168
      H1     1.73768   14.27320   -4.71208
       H     4.89618   10.81235   -6.32240
       O     5.72319   10.71522   -5.79595
      H1     5.74771    9.74262   -5.66549
       H     4.60813   17.12061   -7.96683
       O     3.92759   17.79553   -7.66117
      H1     3.19131   17.67146   -8.28629
       H     3.97788   11.01294  -10.46569
       O     4.67354   10.37804  -10.71430
      H1     5.44260   10.87254  -10.43467
       H     4.70620   12.56759   -3.43344
       O     5.51754   12.79279   -3.94901
      H1     5.67437   11.97143   -4.38569
       H     8.39588   10.98970   -5.09325
       O     8.30454   11.11611   -4.14434
      H1     8.64483   12.02017   -4.14745
       H     1.15116   13.96539  -11.36002
       O     1.54904   14.56667  -12.01355
      H1     1.76495   13.90138  -12.67429
       H     4.83529    8.64839   -7.97531
       O     3.89856    8.91922   -8.18832
      H1     4.13658    9.42272   -8.97796
       H     6.07248    8.17718  -12.45007
       O     6.84993    8.44951  -11.96502
      H1     6.44949    8.45362  -11.08576
       H     0.72351   11.73143  -10.83741
       O     0.44761   12.57024  -10.38233
      H1    -0.42426   12.62474  -10.74040
       H     5.31949   15.08648   -8.26748
       O     5.74314   15.90943   -7.92533
      H1     5.56909   15.88952   -6.96538
       H     9.81008   12.26340  -11.58105
       O    10.19329   11.51709  -11.05715
      H1     9.82934   11.77857  -10.21277
       H     7.28872    8.43474   -8.03275
       O     7.86865    9.09245   -8.45435
      H1     8.24981    9.50163   -7.67234
       H     7.94421   14.04345   -5.98965
       O     8.01708   13.88614   -5.05092
      H1     7.11144   13.41921   -4.79441
       H     4.71454   14.03958  -12.75176
       O     5.23364   14.01492  -11.97212
      H1     5.32741   14.97225  -11.75001
       H     2.64903   13.06955  -10.77859
       O     3.53462   12.84922  -10.45143
      H1     4.06113   13.33229  -11.13902
       H     4.22791   12.82869   -7.38387
       O     4.97180   12.92217   -8.04468
      H1     4.46039   12.99882   -8.92479
       H     9.98747   10.02854   -6.88823
       O     9.23859   10.60519   -6.74509
      H1     9.42708   11.25660   -7.47215
       H     5.24488   16.03007   -4.72717
       O     4.72809   15.74928   -5.51003
      H1     4.38512   16.58549   -5.87598
       H     3.84048   17.32579  -10.95633
       O     4.78478   17.17559  -11.24216
      H1     4.80597   17.33370  -12.19466
       H     2.43150   11.86384   -5.94996
       O     2.92998   11.48331   -6.67604
      H1     3.07570   10.61367   -6.38449
       H     3.17746    8.08193   -6.18826
       O     3.16815    8.68890   -5.41968
      H1     2.52477    8.22445   -4.85290
       H     0.12931   11.17927   -6.72202
       O    -0.04862   10.49326   -6.04716
      H1    -0.84972   10.89200   -5.64570

