90
frame 2 | Written by MDAnalysis XYZWriter (release 2.4.3)
       H    15.64153   16.71276   -1.69539
       O    15.50094   17.69081   -1.63829
      H1    16.50791   17.96498   -1.58517
       H     8.50023   12.27202   -8.82849
       O     9.38024   12.54297   -8.57047
      H1     9.17251   13.38605   -8.08194
       H    16.36946    8.91504   -6.03276
       O    16.65653    9.54091   -6.67122
      H1    15.90842    9.54383   -7.28489
       H     8.93100   15.51389   -4.59778
       O     9.63199   16.16198   -4.58297
      H1     9.29214   16.92373   -4.09675
       H    14.69753   16.51117   -4.65578
       O    14.02868   17.13204   -4.26345
      H1    13.73393   16.68390   -3.44378
       H    17.21547   16.56473   -6.97606
       O    16.55546   17.25146   -7.12421
      H1    16.82871   17.68305   -7.98122
       H    11.98634   15.09794  -12.36766
       O    11.31178   14.43442  -12.04234
      H1    10.40128   14.81338  -12.16026
       H    10.83348   19.08101  -11.14293
       O    11.68813   19.29371  -10.67230
      H1    12.08427   18.39472  -10.47728
       H    11.60130   14.03738   -7.74268
       O    11.50180   14.30809   -6.77680
      H1    11.80957   15.21588   -6.71062
       H    11.51200   14.80370  -10.34332
       O    11.55188   15.16485   -9.44145
      H1    12.15236   15.95850   -9.56856
       H    20.04634   15.55083   -3.54446
       O    19.22251   16.06974   -3.67917
      H1    18.59650   15.53245   -3.15091
       H    10.87643   12.65473   -5.07009
       O    11.28584   11.91992   -4.62193
      H1    10.50046   11.31215   -4.52852
       H    13.57948   17.27411  -11.33543
       O    13.12993   17.03106  -10.45157
      H1    13.90995   16.66473   -9.89819
       H    17.34205   12.23459   -6.72456
       O    17.97065   12.49667   -7.44273
      H1    18.22803   13.37648   -7.15270
       H    16.97173   13.73659   -3.32468
       O    17.68511   14.01902   -2.70141
      H1    18.11033   13.14358   -2.57656
       H    18.02872   15.07233   -9.67344
       O    17.18021   14.89222  -10.13373
      H1    17.11831   13.89146  -10.15911
       H    13.40465   13.50776   -9.85154
       O    13.37640   12.57817  -10.09636
      H1    12.52539   12.52747  -10.52280
       H    11.08108   16.72889   -6.10073
       O    11.80915   17.10675   -6.73614
      H1    12.63521   17.13348   -6.23122
       H    18.20994   15.23056   -5.21961
       O    17.69561   14.94978   -6.00666
      H1    16.86174   14.78870   -5.54862
       H    15.66712   12.62625   -4.08754
       O    15.81251   13.47235   -4.45317
      H1    15.03014   13.51348   -5.08510
       H    16.25525   14.34318   -1.91783
       O    15.38712   14.57080   -1.65337
      H1    14.83450   14.26129   -2.45238
       H    13.39694   14.36088   -6.42930
       O    14.33614   14.57549   -6.31854
      H1    14.53915   14.93309   -7.18152
       H    13.89091   11.29120   -8.22617
       O    13.81394   10.59514   -7.52542
      H1    13.19911    9.94213   -7.88372
       H    19.04039   19.32729   -8.38098
       O    18.60799   18.58194   -8.86906
      H1    18.77144   18.81212   -9.83344
       H    12.94713   11.14433   -4.54279
       O    13.92057   11.02666   -4.69643
      H1    13.72261   10.77602   -5.60606
       H    13.86030   10.36796  -11.72888
       O    14.75687   10.13125  -11.40405
      H1    14.87947   10.91660  -10.80992
       H    18.03297   12.14246  -10.52918
       O    17.10503   12.14609  -10.17245
      H1    17.23949   12.23260   -9.27263
       H    12.55861   15.65571   -1.60093
       O    12.26331   16.48260   -2.09822
      H1    12.30760   17.14898   -1.39476
       H     9.74242   17.17121   -9.49805
       O     9.22713   17.57202   -8.84404
      H1     8.48010   17.75674   -9.45789
       H    15.65331   15.23405   -9.14366
       O    14.94188   15.76172   -8.74946
      H1    15.52184   16.36166   -8.24476

