90
frame 2 | Written by MDAnalysis XYZWriter (release 2.4.3)
       H   -11.20776   -2.85722   -0.54424
       O   -11.09264   -1.98883   -0.96224
      H1   -10.30180   -1.63739   -0.53717
       H   -11.61870    1.24663   -3.81371
       O   -11.50875    0.67339   -3.03434
      H1   -10.71228    0.17978   -3.40712
       H   -14.21870    1.51687    2.26000
       O   -13.89066    1.60198    3.17632
      H1   -14.35090    2.34549    3.58828
       H   -14.89708    2.43021    0.87367
       O   -14.95914    1.47290    0.68500
      H1   -15.85952    1.36276    1.04638
       H   -13.83090    0.62113   -2.03755
       O   -14.75752    0.59238   -1.90926
      H1   -14.88669    0.74676   -0.97643
       H   -10.78863    1.86012    3.20046
       O   -11.26502    1.70983    4.01177
      H1   -12.17029    1.58503    3.65458
       H    -7.51145    2.78873    6.05783
       O    -8.05073    2.11756    6.52750
      H1    -8.29306    1.52142    5.80139
       H    -7.35681    4.72664   -0.66665
       O    -6.46993    5.13239   -0.76613
      H1    -6.77636    5.97120   -1.25064
       H    -9.07752   -2.68625    3.83615
       O    -8.43703   -2.20293    3.29374
      H1    -8.05751   -2.93246    2.75524
       H    -7.86879    4.61735    5.10449
       O    -7.05502    4.50931    5.64402
      H1    -6.40997    4.86504    5.05375
       H   -12.83925    0.15648    0.15387
       O   -12.92105   -0.65672    0.64307
      H1   -12.32220   -1.15903    0.05925
       H   -11.11640    6.07906    2.85293
       O   -10.55884    5.47189    2.29942
      H1   -11.33016    5.07022    1.79660
       H    -6.49627    2.44542    3.35114
       O    -7.13441    1.95963    2.77747
      H1    -7.66576    1.43757    3.39487
       H    -9.92096   -1.10211    1.59717
       O    -9.51874   -0.67611    0.79345
      H1    -8.57666   -0.64962    0.98648
       H    -6.94557   -3.39402    0.40199
       O    -6.94722   -2.44941    0.28398
      H1    -6.49514   -2.33612   -0.52812
       H   -11.75668    0.29713    5.26090
       O   -12.39271   -0.23162    5.71232
      H1   -11.80220   -0.60943    6.39935
       H    -8.80088    6.22353    2.15333
       O    -8.10335    6.64979    1.65092
      H1    -7.86074    6.02490    1.00152
       H    -7.63774   -0.10087   -2.91357
       O    -7.38735   -0.92654   -3.41169
      H1    -6.71786   -1.28890   -2.84862
       H    -9.49167    1.03219    1.28139
       O    -9.84302    1.85988    1.68204
      H1    -9.02011    2.34298    1.39054
       H    -6.94521    2.25595   -2.53730
       O    -7.45996    1.63900   -1.97182
      H1    -6.82482    1.48528   -1.24743
       H   -11.88343    1.73746   -1.50982
       O   -12.03655    2.28327   -0.72998
      H1   -11.36887    1.86636   -0.15366
       H    -8.41997    2.93737   -1.08349
       O    -8.74517    3.62943   -0.44985
      H1    -9.29543    4.21681   -0.98895
       H   -12.07656   -2.36399    2.85910
       O   -11.41388   -1.76099    2.60264
      H1   -11.92855   -1.24131    1.93158
       H   -10.45756    3.56393    4.50562
       O    -9.85612    4.03304    5.09199
      H1    -9.94454    4.94023    4.93108
       H    -6.68073   -0.41712    4.93046
       O    -5.85897   -0.39771    5.43750
      H1    -6.16016   -0.89533    6.19117
       H    -5.01440    0.76952    0.26230
       O    -5.94923    1.03929    0.21969
      H1    -6.15443    1.17149    1.14524
       H   -12.30082    3.93315   -1.01708
       O   -12.38479    4.77032   -1.51251
      H1   -12.38013    4.31993   -2.38903
       H    -9.49444    0.48144    4.06996
       O    -8.63005    0.15313    4.39466
      H1    -8.62346   -0.72869    4.00415
       H   -10.80101    5.83395   -1.89446
       O    -9.83328    5.74178   -2.14380
      H1    -9.58813    6.66253   -2.13724
       H    -5.86327    4.39235    0.61325
       O    -5.57136    4.41111    1.52380
      H1    -4.67903    4.03383    1.45122

