90
frame 2 | Written by MDAnalysis XYZWriter (release 2.4.3)
       H    -7.23731  -16.19929   -1.92771
       O    -6.40853  -15.99972   -2.25414
      H1    -6.13550  -15.37465   -1.51818
       H    -3.71188  -16.57368   -5.62551
       O    -3.67191  -15.63124   -5.71288
      H1    -3.08684  -15.35494   -5.00327
       H     0.82427  -13.11102   -3.82948
       O     1.70843  -13.36458   -3.49973
      H1     1.59613  -14.25649   -3.12425
       H    -2.34904  -15.52083   -9.83598
       O    -1.70609  -14.86484  -10.19690
      H1    -2.28330  -14.08532  -10.13685
       H    -0.89217  -11.05916   -8.33866
       O    -1.57491  -11.19536   -9.02048
      H1    -2.05818  -11.97060   -8.67244
       H    -2.25982  -14.09875   -2.45783
       O    -2.70191  -14.21440   -3.31519
      H1    -2.43874  -13.35378   -3.71429
       H     2.42474  -18.96529   -4.93719
       O     1.69887  -19.61097   -4.87247
      H1     1.15160  -19.44960   -5.63301
       H    -1.13366  -17.05119   -3.54948
       O    -0.72510  -16.19868   -3.83867
      H1    -1.29758  -15.52273   -3.48994
       H    -5.70188  -18.06633  -10.92113
       O    -5.96334  -18.68010  -10.24919
      H1    -5.12222  -19.01791   -9.88842
       H    -4.10338  -18.23510   -1.45402
       O    -4.30303  -19.17977   -1.62837
      H1    -5.06937  -19.06108   -2.20743
       H     0.80771  -17.98809   -2.43476
       O     1.56373  -17.50852   -2.18268
      H1     1.83148  -17.05202   -3.05970
       H     2.41195  -14.10682   -6.81042
       O     2.01928  -14.97368   -6.73248
      H1     1.00836  -14.85928   -6.79067
       H    -1.23234  -12.50397   -5.64806
       O    -0.39254  -12.32410   -5.16760
      H1    -0.35836  -11.37363   -5.04535
       H    -6.39208  -14.65135   -8.25764
       O    -7.28190  -14.37375   -8.02358
      H1    -7.23953  -13.38956   -7.81970
       H    -6.53095  -13.00939   -4.72247
       O    -6.79877  -12.13732   -5.11756
      H1    -6.68176  -11.48201   -4.39618
       H    -8.41219  -14.93942   -6.61375
       O    -9.33037  -15.08326   -6.23334
      H1    -9.59567  -14.12271   -6.14309
       H    -7.54177  -18.65186   -3.20934
       O    -6.54159  -18.70870   -3.18360
      H1    -6.31097  -18.07003   -3.89571
       H    -0.22635  -17.95052   -9.17191
       O    -0.93483  -17.57430   -8.53817
      H1    -0.60926  -16.68415   -8.37559
       H    -8.42380  -17.15010   -9.02963
       O    -7.77262  -17.66145   -8.57482
      H1    -7.11425  -17.79904   -9.28392
       H    -5.16497  -13.44334   -0.28742
       O    -4.95415  -14.28165   -0.75702
      H1    -4.51351  -13.92074   -1.58196
       H    -2.97019  -12.61085   -6.75279
       O    -2.43461  -13.15189   -7.34127
      H1    -3.13359  -13.71081   -7.64151
       H    -4.69419  -12.24292   -5.41207
       O    -3.94114  -11.66865   -5.66975
      H1    -4.30213  -10.89819   -6.16702
       H    -4.20044  -18.68144   -5.70709
       O    -4.25494  -18.08555   -6.44321
      H1    -5.20872  -17.90055   -6.39926
       H    -0.95252  -15.68314   -5.93795
       O    -0.59549  -15.40572   -6.78778
      H1    -1.22506  -14.76709   -7.19445
       H    -7.32605  -17.30198   -6.91801
       O    -6.75374  -17.22423   -6.09999
      H1    -6.83943  -16.22341   -5.97368
       H    -4.19894  -15.47256   -8.63287
       O    -4.44425  -14.54657   -8.64094
      H1    -4.37347  -14.37171   -9.60151
       H    -3.79805  -17.59611   -8.65190
       O    -3.58913  -17.15064   -9.47322
      H1    -2.63272  -17.21072   -9.45814
       H    -0.51154  -18.60410   -7.36768
       O    -0.18597  -19.45426   -6.90269
      H1     0.26286  -19.83879   -7.70433
       H    -1.93758  -19.33665   -4.11998
       O    -1.13507  -19.08971   -3.61966
      H1    -0.41922  -19.27428   -4.23996
       H    -5.31772  -15.32254   -4.84737
       O    -6.27028  -14.99108   -4.73673
      H1    -6.41433  -15.28485   -3.79744

