90
frame 2 | Written by MDAnalysis XYZWriter (release 2.4.3)
       H   -18.83460  -16.18509    7.11810
       O   -19.47092  -15.61279    7.64391
      H1   -19.04187  -14.74506    7.58668
       H   -17.10839  -17.62128    7.42462
       O   -17.61434  -17.58497    6.56475
      H1   -18.38580  -18.10066    6.74464
       H   -13.91206  -18.08446    5.82357
       O   -13.99610  -17.78218    6.71415
      H1   -13.64519  -16.91603    6.70283
       H   -10.16889  -15.77301    4.24385
       O    -9.22696  -15.52359    4.31187
      H1    -9.04993  -15.01718    3.50209
       H   -12.17866  -15.77016    6.50428
       O   -12.85600  -15.35122    7.07437
      H1   -12.63807  -14.41230    6.98981
       H   -14.91729  -18.51143    3.90138
       O   -13.99627  -18.67365    4.13751
      H1   -14.00924  -19.48363    4.68615
       H   -16.31546  -14.22016    9.60523
       O   -15.54089  -14.66044    9.17158
      H1   -15.86129  -15.56850    9.42782
       H   -12.13068  -17.06748    4.60156
       O   -11.53872  -16.50699    5.18321
      H1   -10.87043  -17.18318    5.38540
       H   -10.47800  -15.31200    9.97830
       O   -10.75445  -16.00523    9.37015
      H1   -11.40185  -15.48039    8.82578
       H   -16.78025  -17.80095    9.75890
       O   -16.14140  -17.61426    9.06881
      H1   -15.39808  -18.25519    9.23297
       H   -14.24966  -13.95850    0.42681
       O   -14.52103  -13.79276   -0.47301
      H1   -15.48673  -13.76253   -0.44641
       H   -10.93848  -17.87583   10.31802
       O   -11.20716  -18.62630   10.84570
      H1   -11.42785  -18.04397   11.67737
       H   -14.93708  -17.35393   10.75114
       O   -14.75416  -17.18689   11.69490
      H1   -15.61992  -16.86208   11.94800
       H   -13.29911  -15.55971   11.36258
       O   -13.43406  -14.69210   10.95720
      H1   -13.92208  -14.79774   10.11951
       H    -8.15900  -18.30226    8.25098
       O    -7.80256  -19.19668    8.40341
      H1    -7.13355  -19.13184    9.06914
       H    -8.74789  -18.15743    2.38892
       O    -8.19985  -17.38197    2.60730
      H1    -8.73265  -16.94189    3.26059
       H   -14.28454  -14.79558    3.47299
       O   -14.77598  -15.15309    4.25505
      H1   -14.08647  -15.05590    4.98772
       H    -9.87754  -16.63993    8.17499
       O    -9.32120  -16.88437    7.42268
      H1    -9.80761  -17.61414    7.04392
       H   -10.81014  -13.08691    5.54514
       O   -11.68942  -13.00641    5.94189
      H1   -12.24437  -12.89476    5.18677
       H   -15.56010  -16.33267   -1.86464
       O   -16.23884  -16.41025   -1.15566
      H1   -16.57598  -15.48882   -1.15993
       H   -15.70125  -14.28040    7.38826
       O   -15.91924  -13.71221    6.58642
      H1   -15.14610  -13.08944    6.60185
       H   -14.71156  -17.52274   -0.12587
       O   -13.97251  -18.06973   -0.11446
      H1   -13.90754  -18.30664   -1.06270
       H   -17.81663  -18.47867    3.32532
       O   -18.39555  -19.17451    2.94365
      H1   -18.01602  -19.50988    2.14830
       H   -12.71396  -17.17502    0.97767
       O   -11.91250  -17.02290    1.58644
      H1   -11.61678  -17.90539    1.71990
       H   -10.27124  -16.49781    0.92582
       O    -9.44069  -16.05516    0.74421
      H1    -8.88848  -16.43374    1.50729
       H   -19.67650  -14.52290    0.62178
       O   -19.04166  -15.21308    0.50473
      H1   -19.17021  -15.70874    1.30562
       H    -9.63273  -19.62435    4.97480
       O   -10.25677  -18.98114    5.32593
      H1   -10.66064  -19.55224    6.01476
       H   -15.92101  -16.50962    4.25797
       O   -16.54465  -17.26543    4.13428
      H1   -16.85112  -17.26214    5.04604
       H   -12.41441  -13.93477    1.78729
       O   -13.37573  -13.84820    2.03991
      H1   -13.28112  -12.98134    2.52888
       H   -18.02385  -15.69416    4.01997
       O   -18.81916  -15.36689    3.56571
      H1   -19.52875  -15.59123    4.25358

