90
frame 2 | Written by MDAnalysis XYZWriter (release 2.4.3)
       H     5.01838   -1.36412    7.68723
       O     5.03375   -2.12330    7.09447
      H1     4.75696   -2.72448    7.84158
       H     1.47851   -1.55974    5.07735
       O     0.87731   -1.54847    4.26601
      H1     0.07863   -1.48167    4.71865
       H     6.51432   -4.03124    2.13003
       O     5.78908   -3.82171    1.52115
      H1     6.29122   -3.34716    0.85176
       H     1.34730    0.90891    6.12719
       O     1.26834    0.46931    7.02053
      H1     0.98316    1.20024    7.60118
       H     6.24822    0.54904    2.41507
       O     7.02075    0.28398    1.89983
      H1     7.73376   -0.02216    2.48165
       H     4.08227    1.98468    7.32667
       O     4.07449    2.83146    7.85053
      H1     3.14486    2.87594    8.13875
       H     1.22861    0.08964    4.00776
       O     1.58628    0.95072    4.13561
      H1     2.45452    0.95108    3.65573
       H     9.98585   -0.89579    5.82972
       O     9.68066   -0.68232    6.72557
      H1     8.89688   -0.16303    6.51176
       H     4.73165   -3.09904    3.02458
       O     3.99046   -2.65719    3.47013
      H1     3.34331   -3.39443    3.47683
       H     4.36168   -2.96353   -0.97129
       O     3.49521   -3.36071   -1.04432
      H1     3.63796   -4.32684   -0.85467
       H     6.10824    6.20924    1.76627
       O     5.98322    5.84700    2.69492
      H1     5.38114    5.07700    2.46350
       H     6.66851   -2.44029    6.49045
       O     7.49132   -2.72717    6.04634
      H1     7.12935   -3.59209    5.77684
       H     6.55150    1.77181   -0.20589
       O     5.82793    2.13392   -0.78119
      H1     6.11579    1.98371   -1.73575
       H     3.66792    3.66200    3.45803
       O     4.54992    3.27261    3.29896
      H1     4.97455    3.56641    4.09093
       H     9.06420    3.03329    2.34162
       O     8.57796    2.97455    1.54138
      H1     7.71394    2.60974    1.88285
       H     4.94267    0.81381    5.42204
       O     4.87115    0.79129    6.40075
      H1     5.80284    0.95057    6.54946
       H     1.53906    2.62825    3.60055
       O     1.88810    3.46893    3.20072
      H1     1.76483    3.19953    2.24953
       H    -0.03365   -1.61896    1.08497
       O     0.86144   -1.90205    1.43243
      H1     0.70603   -1.83706    2.35818
       H     1.97757    2.47613   -0.10259
       O     1.69136    2.07281    0.75536
      H1     1.31294    1.29405    0.38734
       H     7.48575   -1.91752   -0.85311
       O     7.00645   -2.72377   -0.57411
      H1     7.50775   -3.37480   -1.11552
       H     1.86396   -0.97295    6.85343
       O     2.07500   -1.95600    6.74289
      H1     3.04486   -2.01842    6.72854
       H     3.51242   -1.73721    1.90022
       O     3.23044   -0.87127    1.52232
      H1     2.29189   -0.91402    1.61105
       H     3.91222    4.20977   -1.17081
       O     3.21187    3.56070   -1.10075
      H1     3.77692    3.00318   -0.54245
       H     3.77198   -0.14161   -0.33518
       O     3.90619    0.33654   -1.11318
      H1     4.52704    1.00241   -0.81752
       H     1.80040   -4.75932    4.46850
       O     2.27211   -4.68547    3.63741
      H1     1.53936   -4.81861    3.09584
       H     8.24579   -1.46189    4.67487
       O     8.66544   -0.95561    3.94065
      H1     9.24750   -1.62968    3.51284
       H     7.78338    0.01111    0.39169
       O     8.16582   -0.24655   -0.47738
      H1     9.09878   -0.13752   -0.39541
       H     4.89485    4.04685    6.28385
       O     5.40078    4.60018    5.65650
      H1     6.31019    4.41895    5.80799
       H     4.35230   -0.25483    2.79542
       O     4.84397    0.18690    3.52218
      H1     5.07475   -0.60308    3.98211
       H     7.60700    2.34377    6.73073
       O     7.58517    1.54784    6.19617
      H1     7.67348    1.82245    5.25144

