90
frame 2 | Written by MDAnalysis XYZWriter (release 2.4.3)
       H    12.40446    4.35539  -17.01553
       O    11.73525    5.03799  -16.72850
      H1    11.13104    4.38253  -16.46458
       H     3.33837    1.39196  -13.04434
       O     4.24577    1.11499  -12.83330
      H1     4.54493    1.87922  -12.27597
       H     9.85064   -2.14586  -13.72260
       O     8.92034   -2.17839  -13.36528
      H1     8.68074   -1.31842  -13.81450
       H    11.37267    9.01904  -12.48446
       O    10.75876    8.32267  -12.76650
      H1    11.30984    7.55171  -13.16880
       H     6.76051    2.88850  -14.04141
       O     6.37372    2.05602  -14.36672
      H1     5.69301    1.96330  -13.70260
       H     7.74349    0.84197  -14.38518
       O     8.43328    0.25159  -14.65335
      H1     9.07196    0.95159  -14.95314
       H    10.46286    4.72345   -7.85087
       O    10.08252    4.87375   -6.98684
      H1    10.19038    3.95050   -6.66105
       H    10.93419    1.15281  -10.90114
       O    11.28916    1.95217  -11.29172
      H1    11.07890    2.60312  -10.56539
       H    14.61028    4.83493  -13.80268
       O    14.39732    5.78698  -14.02883
      H1    13.39594    5.72332  -13.93021
       H     9.57618   -1.01086  -10.46489
       O     9.81653   -0.06978  -10.25520
      H1     8.97673    0.38390  -10.43252
       H     8.77812    3.50249  -16.93501
       O     9.13016    4.30046  -16.52217
      H1     9.22624    4.89981  -17.30889
       H    11.79368    5.65007  -15.03834
       O    11.62438    5.96814  -14.14006
      H1    10.90238    5.38359  -13.90280
       H     7.85577    7.09718  -12.23150
       O     8.56105    6.44367  -12.55583
      H1     9.24598    7.13758  -12.58815
       H     6.61179    6.08586  -15.03300
       O     6.60252    6.99689  -15.37534
      H1     7.17623    6.87584  -16.20940
       H     7.70761    4.42057  -15.13162
       O     7.40138    4.48071  -14.21949
      H1     8.08916    4.97797  -13.76797
       H    12.97589    1.65820  -12.00733
       O    13.64808    1.24641  -12.60462
      H1    14.16569    0.66284  -11.92680
       H     7.27859    5.04085   -8.37570
       O     7.53274    5.72617   -7.78978
      H1     8.47386    5.63122   -7.58266
       H    13.71083    5.61870  -12.03898
       O    13.48220    5.78580  -11.13763
      H1    14.03454    6.58918  -10.84792
       H     9.05055    7.07997   -9.14887
       O     9.88746    7.30756   -9.65561
      H1     9.52379    8.11314  -10.12276
       H     9.86355    4.57857  -12.28816
       O    10.32335    3.86537  -12.82012
      H1    10.03177    3.04642  -12.37471
       H    10.74538    1.14597  -15.02290
       O    10.36557    2.03391  -15.29612
      H1    10.74021    2.49633  -14.53819
       H     6.74942    2.52363  -16.76071
       O     7.41013    1.91753  -17.15993
      H1     7.68201    1.33650  -16.43458
       H    12.60536    0.08949  -13.81662
       O    12.03043   -0.29717  -14.50522
      H1    12.72619   -0.31247  -15.25147
       H     7.37695    1.78454  -10.37631
       O     7.53023    1.02381  -10.98579
      H1     6.81226    0.42323  -10.78393
       H     5.29572    6.34432  -11.68044
       O     5.81225    5.56685  -11.42819
      H1     6.56072    5.53927  -12.11606
       H    10.33074    4.83135   -9.68388
       O    11.18580    4.43140   -9.72381
      H1    11.53235    5.04312  -10.37422
       H    12.96441    3.60061   -9.09631
       O    13.46440    3.42203   -8.29496
      H1    14.30978    3.00779   -8.61624
       H     6.58461    3.19738   -8.67852
       O     7.20480    3.29041   -9.43748
      H1     6.52316    3.41996  -10.14435
       H     9.88294   -0.19237   -8.26437
       O     9.65937   -0.13574   -7.31341
      H1     8.84515   -0.63156   -7.22788
       H    15.36965    2.81718  -14.54240
       O    15.39972    3.11437  -13.61215
      H1    14.86025    2.43797  -13.25811

