90
frame 2 | Written by MDAnalysis XYZWriter (release 2.4.3)
       H    -7.96979  -11.85322    8.51049
       O    -7.23813  -12.48601    8.44711
      H1    -6.65584  -12.13636    9.10513
       H     0.23828   -9.74635   10.00506
       O     0.53763   -9.21726   10.81098
      H1     0.76432   -9.94576   11.40927
       H     1.49984  -14.34417    6.84339
       O     0.76163  -14.00833    7.39121
      H1     0.20578  -13.69825    6.67207
       H    -3.50886  -11.99296    6.86441
       O    -3.70943  -11.72100    5.92582
      H1    -3.36899  -10.81377    5.94293
       H    -1.07059  -16.26805    8.38436
       O    -1.11858  -16.39297    7.43793
      H1    -0.40925  -15.83528    7.13758
       H    -5.03408  -15.59941    9.42413
       O    -5.99481  -15.81689    9.44357
      H1    -6.26280  -15.57808    8.52774
       H    -7.22216  -10.41230    2.97752
       O    -6.69883  -11.20981    3.05791
      H1    -6.60946  -11.15287    4.03837
       H    -6.87425  -13.41598   10.71515
       O    -7.15857  -14.17120   11.22000
      H1    -6.74147  -14.90508   10.67178
       H    -6.50854  -14.16327   13.07555
       O    -5.79561  -14.58646   13.64271
      H1    -6.31636  -15.33360   13.89516
       H    -6.66808   -8.29889   11.77544
       O    -6.41046   -9.21032   12.01580
      H1    -5.48587   -9.17724   12.29660
       H    -3.41118  -17.48361   10.70797
       O    -3.35561  -17.07718    9.80532
      H1    -2.92555  -17.79521    9.27907
       H    -4.69255   -9.41913    9.00600
       O    -5.56030   -9.30155    8.59939
      H1    -5.92185  -10.03494    9.18900
       H    -2.94418  -10.67320   12.42321
       O    -2.92626  -11.12749   11.57838
      H1    -3.09232  -10.40478   10.96414
       H    -2.33250   -9.23514    8.85952
       O    -3.04136   -9.08208    9.50482
      H1    -2.77499   -8.29711   10.02599
       H    -0.65750  -10.41739    7.84920
       O    -1.23963   -9.74837    7.46859
      H1    -0.55648   -9.12749    7.13239
       H    -3.25615  -13.00623    9.22178
       O    -3.88623  -12.81890    8.52860
      H1    -3.91626  -13.70131    8.08596
       H    -1.31111  -13.99615   10.80167
       O    -1.52689  -13.21671   10.26995
      H1    -1.96741  -12.60629   10.90025
       H    -1.89730  -16.32178   10.59016
       O    -1.08731  -15.85050   10.89101
      H1    -0.50116  -16.64727   10.91344
       H    -7.57202  -14.22716    7.06307
       O    -7.19217  -15.13182    7.01681
      H1    -7.98363  -15.69638    7.21898
       H    -0.83986  -13.81510    4.60325
       O    -0.30323  -13.18267    5.13784
      H1     0.35148  -12.93437    4.53347
       H    -6.37879  -15.83413    5.38632
       O    -5.99144  -16.23104    4.59044
      H1    -6.82909  -16.60709    4.19113
       H     0.69961  -12.69338   11.49387
       O     0.66117  -11.76052   11.76890
      H1    -0.22822  -11.69400   12.10054
       H    -8.00394  -12.76984    5.30631
       O    -8.84446  -13.20953    5.55863
      H1    -8.75096  -14.09541    5.13073
       H    -2.59016  -15.40670    6.84330
       O    -3.56773  -15.27633    6.87869
      H1    -3.92441  -16.17913    6.65923
       H    -5.39543  -11.42993    5.81019
       O    -6.35839  -11.37957    5.85178
      H1    -6.49100  -11.48812    6.80185
       H    -0.11547  -12.21525    9.50958
       O     0.32868  -11.53876    8.89822
      H1     0.82319  -12.15567    8.33877
       H    -4.25997  -13.06272    4.56791
       O    -4.05220  -13.49854    3.71246
      H1    -4.76170  -14.10559    3.57851
       H    -5.66881  -19.12425   10.18220
       O    -6.20173  -18.36519   10.29910
      H1    -5.61893  -17.60402    9.98372
       H    -1.92812  -16.22053    4.11286
       O    -1.58703  -15.33565    3.86006
      H1    -2.39071  -14.79033    3.98954
       H    -4.96400  -11.37416   11.17965
       O    -5.85195  -11.50613   10.74483
      H1    -6.32394  -10.69543   10.99184

