90
frame 2 | Written by MDAnalysis XYZWriter (release 2.4.3)
       H    15.30879    9.74034   18.34550
       O    15.57546   10.07209   19.20905
      H1    16.41906   10.55746   18.95043
       H     9.88703   11.54616   12.01687
       O     9.49676   10.68609   12.12288
      H1    10.16606   10.04584   11.81336
       H    13.31952    6.64458   11.77573
       O    13.98027    6.19257   11.27462
      H1    14.75530    6.29309   11.83113
       H    10.45888    7.68304   13.96562
       O     9.76642    7.12000   13.61990
      H1    10.28026    6.85480   12.81011
       H    17.17572    6.32725   13.42363
       O    16.62792    6.31850   14.20371
      H1    16.65345    5.41467   14.50766
       H    17.85446   11.72679   11.68247
       O    17.93064   11.56574   12.66457
      H1    17.63252   10.63417   12.62113
       H    15.84668    3.43804   17.48973
       O    16.18082    4.38273   17.64635
      H1    15.56953    4.85602   17.01262
       H    13.84017    8.60837   17.97928
       O    14.22965    9.06786   17.17039
      H1    13.54059    9.74055   16.86472
       H    14.25727    9.78428   14.96749
       O    14.81328    9.62394   14.11424
      H1    15.18734    8.80326   14.35452
       H    13.82525   12.88247   11.72391
       O    14.01051   12.80622   10.79677
      H1    14.98557   12.69192   10.83816
       H    14.22161    6.22658   16.17974
       O    13.82158    5.35189   16.13086
      H1    13.45048    5.29470   17.03008
       H    13.29697   10.11221   11.33111
       O    12.53794    9.74448   10.86167
      H1    12.84942    9.56339    9.92940
       H    19.76951    6.54165   15.03536
       O    19.31224    7.39581   14.92286
      H1    18.46498    7.08415   14.58614
       H    13.11191    8.63692   13.65453
       O    12.56920    7.95560   13.23832
      H1    12.51800    8.39047   12.36626
       H     9.96836   11.65814   15.97600
       O    10.43886   11.23867   16.78567
      H1     9.93800   10.36266   16.82504
       H    17.60888   13.28784   16.18764
       O    17.50766   13.87761   16.99523
      H1    18.10918   14.60970   16.79566
       H    18.25375   10.49678   17.76957
       O    17.69095   11.15756   18.24433
      H1    17.18138   11.47728   17.48660
       H    13.29209   11.43922   15.92652
       O    12.81556   10.61752   15.69565
      H1    11.85488   10.75786   15.97996
       H    19.45963    8.59708   16.54588
       O    18.98325    8.99741   17.25380
      H1    19.57423    9.10240   17.95662
       H    13.37702   12.04339   18.54460
       O    13.15008   11.29893   19.10163
      H1    13.96217   10.71287   19.22452
       H    17.28211   13.53979   10.43612
       O    16.98249   12.61021   10.37866
      H1    17.09265   12.40456    9.44146
       H    16.22292   10.80745   15.30559
       O    16.68575   11.66028   15.39793
      H1    17.01087   11.67938   14.50811
       H    11.34613    5.14188   14.99462
       O    10.79664    4.85968   15.66345
      H1     9.90235    5.11467   15.41706
       H    12.90949   13.48373   13.94760
       O    13.15138   12.71496   13.35439
      H1    13.92481   12.33001   13.85621
       H    18.86423    5.94217   10.87542
       O    18.07240    5.68083   11.40975
      H1    18.30458    4.69641   11.57340
       H    14.25272   13.29928   16.91973
       O    14.27207   12.94108   16.01341
      H1    15.20702   12.67313   16.02508
       H    14.72084   15.16231   13.03914
       O    15.41901   15.14703   13.72274
      H1    14.95750   15.16970   14.56028
       H    11.08650   12.94255   10.50143
       O    10.88089   12.04409   10.16780
      H1    11.66932   11.57065   10.33189
       H    11.30169    8.45046   17.57164
       O    10.35532    8.51951   17.90828
      H1     9.89277    7.80503   17.42009
       H    18.51297    8.16083   11.98748
       O    17.63140    8.37946   12.25575
      H1    16.99661    7.98990   11.70328

