90
frame 5 | Written by MDAnalysis XYZWriter (release 2.4.3)
       H    -3.97400   -3.64226   12.73109
       O    -3.95016   -2.74348   12.35056
      H1    -3.04769   -2.43882   12.45590
       H     0.06012   -1.63178   17.83051
       O     0.36352   -2.10781   17.08542
      H1     1.09205   -2.66309   17.33901
       H     1.52774   -7.35410   14.24193
       O     2.05648   -6.87160   14.86786
      H1     2.99378   -6.91542   14.55610
       H    -4.48675   -5.78453   13.94183
       O    -4.65948   -5.31225   13.12064
      H1    -4.77853   -6.01170   12.46154
       H    -7.61105   -4.14737   12.55608
       O    -7.50279   -4.32844   13.50019
      H1    -6.58530   -4.57177   13.69458
       H    -0.46733   -0.94208   13.29661
       O    -1.28874   -0.98203   12.72022
      H1    -1.64541   -0.11972   12.83089
       H    -0.08544   -8.54980   12.43223
       O     0.55362   -7.88178   12.67592
      H1     1.33824   -8.20358   12.15233
       H    -1.73025   -5.60820    8.86401
       O    -1.24859   -6.20579    9.53927
      H1    -1.47105   -5.70339   10.28306
       H    -2.13272   -9.36832   12.83215
       O    -1.42445   -9.79744   12.33303
      H1    -1.94365   -9.84279   11.45241
       H    -6.99617   -8.35777   14.97808
       O    -7.11207   -7.45910   14.67991
      H1    -7.58665   -7.51929   13.82074
       H    -2.60599  -11.08411   15.48512
       O    -3.55572  -11.19475   15.33208
      H1    -3.70034  -10.82282   14.45974
       H     0.21413   -3.82326   14.46182
       O    -0.75328   -3.60630   14.28703
      H1    -0.79008   -2.68814   14.15353
       H    -2.37581   -8.16789   16.55455
       O    -2.41957   -8.83218   17.22962
      H1    -1.64431   -8.63627   17.82754
       H    -4.56462   -8.01437   11.49164
       O    -5.05150   -7.36840   11.08637
      H1    -4.52706   -7.29829   10.26880
       H    -0.54712  -11.44350   17.19356
       O    -1.07571  -11.03245   16.51358
      H1    -1.49452  -10.22064   16.79521
       H    -2.34268   -5.62594   12.48871
       O    -1.47615   -5.25302   12.25375
      H1    -1.21821   -4.76867   13.09341
       H    -1.71152   -5.62357   15.58405
       O    -1.75177   -6.52380   15.20258
      H1    -1.50900   -6.52282   14.31244
       H     1.35917   -0.35198   14.82072
       O     0.48520   -0.70931   14.68678
      H1     0.29664   -1.32348   15.41574
       H    -5.08481   -1.69688   13.07042
       O    -6.03322   -1.46646   13.23693
      H1    -6.48234   -2.32133   13.21482
       H    -4.38396   -9.26604   13.96137
       O    -3.74246   -8.61637   13.70110
      H1    -3.79966   -7.92303   14.39030
       H     1.61392   -4.20433   13.05260
       O     1.95147   -4.31485   13.96601
      H1     1.98529   -5.30305   14.08145
       H     0.29898   -7.21927   18.21432
       O    -0.16666   -7.92012   18.70624
      H1     0.51146   -8.44656   19.14212
       H    -2.00795   -3.83903   18.53045
       O    -1.66858   -4.10843   17.62843
      H1    -1.04366   -3.42519   17.41314
       H    -0.12209   -5.03667   17.69495
       O     0.66752   -5.49344   17.44892
      H1     0.39987   -5.77409   16.56309
       H     0.06992   -4.42702   11.46811
       O     0.93248   -4.04802   11.35236
      H1     0.75286   -3.11714   11.08905
       H    -4.47745   -5.89696   18.93959
       O    -4.92210   -5.58667   18.18518
      H1    -4.84484   -4.61721   18.08855
       H    -3.58635   -2.86209   17.39191
       O    -4.43362   -2.82298   17.83766
      H1    -4.95284   -2.12086   17.37779
       H    -5.64222   -6.70888   15.35386
       O    -4.66981   -6.56427   15.58672
      H1    -4.73182   -6.27157   16.49121
       H     2.22587   -4.69109   17.06099
       O     2.88954   -4.05142   16.77770
      H1     2.74491   -3.84491   15.82593
       H     2.41856   -7.69956   16.44432
       O     2.49811   -8.39396   17.12221
      H1     2.68452   -7.83906   17.92745

