90
frame 4 | Written by MDAnalysis XYZWriter (release 2.4.3)
       H     6.43184   -8.19608  -12.51589
       O     6.10103   -9.01277  -12.24093
      H1     6.90208   -9.47939  -11.91278
       H     6.54182   -5.99464  -13.05240
       O     7.22102   -6.64093  -12.78947
      H1     7.95940   -6.11485  -12.39425
       H     5.96811   -4.99550  -14.80084
       O     6.54815   -4.27217  -14.41114
      H1     6.07739   -3.46247  -14.36304
       H     3.58269   -4.95043  -11.30791
       O     3.10382   -4.68182  -12.14645
      H1     2.17792   -5.08280  -12.08653
       H     8.13678   -0.82778  -19.17418
       O     7.93163   -0.86182  -18.22795
      H1     8.47561   -1.60980  -17.92350
       H     5.90078   -4.46964  -10.19000
       O     4.96184   -4.82273  -10.10713
      H1     4.64386   -4.48451   -9.26184
       H     5.16891   -5.12196  -17.86791
       O     5.90408   -5.72508  -17.83917
      H1     6.76713   -5.24920  -17.75207
       H    11.93708   -4.69750  -14.45678
       O    11.97573   -5.32669  -15.21005
      H1    11.43055   -6.04901  -14.90999
       H     4.40575   -1.48045  -13.30946
       O     5.37066   -1.64820  -13.54752
      H1     5.43720   -1.05494  -14.33333
       H     7.04026   -3.60549   -8.91572
       O     7.27714   -3.51760   -9.84321
      H1     7.09891   -2.60637  -10.18380
       H     2.62810   -1.14042  -11.66160
       O     2.96324   -1.77138  -12.30018
      H1     3.09320   -2.61388  -11.90205
       H     5.59478    0.74686  -16.73041
       O     5.99306    0.10498  -16.15094
      H1     6.70922   -0.29643  -16.68184
       H     4.43875   -8.40681  -16.44139
       O     5.06836   -8.17677  -17.10279
      H1     5.23803   -7.18673  -17.19608
       H     4.92397   -8.77155  -18.69643
       O     4.55633   -8.98604  -19.56233
      H1     5.02920   -9.73957  -19.86783
       H     5.07486  -10.02132  -13.42215
       O     4.55924  -10.61440  -13.98762
      H1     3.88712  -10.96650  -13.35148
       H     6.75433   -8.86640  -16.71014
       O     7.61437   -9.31663  -16.57036
      H1     8.31168   -8.87675  -17.04682
       H     9.46013   -2.28144  -15.40690
       O     8.68421   -2.65526  -15.92782
      H1     8.20039   -3.32643  -15.49806
       H     9.27829   -6.04108  -18.77375
       O    10.04716   -6.64737  -18.94558
      H1     9.95558   -6.86069  -19.86815
       H     3.73522   -7.76589  -14.67790
       O     3.34682   -8.56761  -15.11449
      H1     3.75299   -9.28185  -14.63015
       H     3.73536   -5.72740  -13.56254
       O     4.21948   -6.09007  -14.29868
      H1     3.89154   -5.52016  -15.01325
       H     1.40350   -3.49008  -12.89170
       O     0.45740   -3.34081  -13.07570
      H1     0.29595   -3.98862  -13.74222
       H    10.38299   -7.50700  -13.92031
       O     9.81001   -7.22299  -14.68033
      H1     8.95702   -7.59273  -14.40127
       H     2.92872   -3.74030  -16.38588
       O     2.98299   -4.69479  -16.39244
      H1     3.00154   -4.90747  -17.33518
       H     6.93563   -0.58014  -10.95863
       O     7.40731   -0.99794  -11.70770
      H1     6.67252   -1.31511  -12.34774
       H     3.16987   -1.38283  -16.67262
       O     3.93164   -1.91525  -16.38762
      H1     4.76141   -1.35336  -16.45837
       H     9.75930   -4.94803  -12.11491
       O     9.26612   -5.27686  -11.31765
      H1     8.86799   -4.49420  -10.95803
       H     0.04491   -6.14395  -14.47540
       O     0.80446   -5.56017  -14.60027
      H1     1.23687   -5.66253  -15.42624
       H     5.15022   -6.66425  -10.12767
       O     5.02572   -7.63466  -10.03408
      H1     5.37113   -7.97727  -10.91909
       H     8.27843   -3.74006  -17.40322
       O     8.13702   -4.45039  -18.05878
      H1     8.30208   -4.10496  -18.94872
       H     4.43608   -2.43026  -18.39150
       O     4.27828   -1.91796  -19.20539
      H1     4.57430   -1.00300  -19.07640

