90
frame 2 | Written by MDAnalysis XYZWriter (release 2.4.3)
       H   -11.80881  -18.73786   -8.80830
       O   -11.98691  -18.84185   -9.74191
      H1   -11.95010  -19.85640   -9.80722
       H   -12.93687  -17.31246   -6.66248
       O   -13.68996  -16.69771   -6.43534
      H1   -13.27049  -16.46874   -5.54430
       H   -14.58967  -13.08180   -8.24839
       O   -15.37491  -13.34556   -7.73016
      H1   -15.55385  -14.26827   -7.81565
       H   -11.89311  -13.21681   -3.23515
       O   -12.16570  -13.59099   -4.10538
      H1   -11.85184  -14.50167   -4.05220
       H    -9.01241  -13.57105   -1.57456
       O    -8.65295  -14.47810   -1.45781
      H1    -9.19080  -14.76991   -0.68627
       H   -14.91729  -18.51143    3.90138
       O   -13.99627  -18.67365    4.13751
      H1   -14.00924  -19.48363    4.68615
       H   -17.49008  -13.46321   -1.91745
       O   -17.11445  -13.63941   -1.03807
      H1   -17.89186  -14.07780   -0.61258
       H    -8.41219  -14.93942   -6.61375
       O    -9.33037  -15.08326   -6.23334
      H1    -9.59567  -14.12271   -6.14309
       H   -18.92891  -14.11549   -3.56254
       O   -18.16191  -13.47914   -3.62980
      H1   -18.59501  -12.80880   -4.22486
       H    -7.54177  -18.65186   -3.20934
       O    -6.54159  -18.70870   -3.18360
      H1    -6.31097  -18.07003   -3.89571
       H    -9.69339  -15.33421   -2.66047
       O   -10.30878  -15.63708   -3.35919
      H1    -9.79807  -15.57667   -4.21736
       H   -19.21791  -15.34469   -6.16355
       O   -18.43871  -14.86165   -6.48530
      H1   -17.76079  -15.54434   -6.47203
       H   -14.24966  -13.95850    0.42681
       O   -14.52103  -13.79276   -0.47301
      H1   -15.48673  -13.76253   -0.44641
       H   -17.21990  -17.53292   -2.54570
       O   -18.06424  -17.78239   -2.91265
      H1   -17.79483  -18.72108   -3.17983
       H   -12.23314  -19.16581   -6.70892
       O   -11.78984  -18.39232   -7.12894
      H1   -10.87561  -18.41124   -6.73894
       H   -18.89637  -17.88266   -9.04226
       O   -18.51024  -18.57249   -8.48065
      H1   -18.59042  -18.16958   -7.63246
       H   -14.84893  -14.83595   -3.57591
       O   -14.55972  -15.57607   -2.97635
      H1   -14.24677  -15.10840   -2.16523
       H   -15.56010  -16.33267   -1.86464
       O   -16.23884  -16.41025   -1.15566
      H1   -16.57598  -15.48882   -1.15993
       H   -14.71156  -17.52274   -0.12587
       O   -13.97251  -18.06973   -0.11446
      H1   -13.90754  -18.30664   -1.06270
       H   -17.81663  -18.47867    3.32532
       O   -18.39555  -19.17451    2.94365
      H1   -18.01602  -19.50988    2.14830
       H   -12.71396  -17.17502    0.97767
       O   -11.91250  -17.02290    1.58644
      H1   -11.61678  -17.90539    1.71990
       H   -10.27124  -16.49781    0.92582
       O    -9.44069  -16.05516    0.74421
      H1    -8.88848  -16.43374    1.50729
       H   -13.21016  -18.33838   -3.12127
       O   -13.46858  -19.18460   -2.80003
      H1   -14.28742  -19.39774   -3.28734
       H   -15.68513  -12.69879   -3.87532
       O   -15.39658  -12.11893   -3.14145
      H1   -14.47094  -12.24253   -3.32869
       H   -15.89205  -18.00943  -10.11885
       O   -15.93324  -17.01708  -10.11656
      H1   -16.65746  -16.69229  -10.66838
       H   -15.21274  -16.23967   -7.18884
       O   -16.05627  -15.95968   -7.62809
      H1   -15.95016  -16.37289   -8.53556
       H   -18.04101  -17.73899   -4.77393
       O   -17.98645  -17.52583   -5.72015
      H1   -17.01469  -17.45617   -5.87188
       H   -13.33790  -16.33282   -3.56533
       O   -12.65154  -16.91866   -3.99808
      H1   -11.88188  -16.52051   -3.51305
       H   -16.74680  -14.22577   -4.92936
       O   -15.78490  -14.14254   -5.03619
      H1   -15.61902  -14.02330   -5.98091
       H    -9.47690  -18.78863   -4.03612
       O    -9.15128  -18.39680   -3.22512
      H1    -9.45327  -17.48576   -3.33206

