90
frame 2 | Written by MDAnalysis XYZWriter (release 2.4.3)
       H   -16.29788    6.55210   -4.51291
       O   -16.82647    6.28702   -3.74429
      H1   -16.04181    6.05125   -3.17670
       H   -12.30570    4.38453  -11.28707
       O   -12.75223    3.67020  -11.83690
      H1   -13.61875    4.05255  -12.12180
       H   -13.15051    4.92702   -8.02586
       O   -13.86434    4.93473   -7.35443
      H1   -14.55558    5.25812   -7.96077
       H   -17.57858    2.11748   -7.48525
       O   -18.29011    1.74945   -8.02333
      H1   -18.05515    0.82088   -8.14009
       H   -14.28266    0.46057   -7.59885
       O   -13.75683    1.23916   -7.77379
      H1   -13.49775    1.18315   -8.70680
       H   -17.01303    3.06971  -12.98867
       O   -16.45800    2.29669  -12.83016
      H1   -16.56768    2.19230  -11.90573
       H   -19.97950    0.30942  -10.95647
       O   -19.85989    1.17513  -11.33947
      H1   -19.16181    1.53458  -10.80829
       H   -13.67225    6.42050   -4.18631
       O   -13.29500    5.58702   -4.49345
      H1   -13.65721    5.67066   -5.33791
       H   -18.27360    3.35082  -10.52982
       O   -17.62265    2.64477  -10.40713
      H1   -17.70372    2.38215   -9.48114
       H   -15.71832    7.30610   -8.94726
       O   -16.38158    6.69420   -8.61682
      H1   -17.11514    6.95388   -9.14225
       H   -15.35052   -0.79338   -5.12730
       O   -15.02624   -1.03415   -5.98827
      H1   -14.06663   -1.28759   -5.75548
       H   -15.67159   -1.32962  -10.36026
       O   -16.59504   -1.11306  -10.11360
      H1   -16.99868   -2.02492  -10.11966
       H   -16.87422    4.08043   -7.03020
       O   -17.79487    4.44924   -7.19247
      H1   -17.57114    4.91572   -8.05811
       H   -16.53432    7.71945   -6.73699
       O   -16.60594    8.21778   -5.89857
      H1   -17.59629    8.07177   -5.77859
       H   -16.53558   -1.45143   -8.37166
       O   -16.69246   -2.13093   -7.62611
      H1   -16.11522   -1.65168   -6.94321
       H   -18.51415    6.62894  -11.04177
       O   -18.45969    7.22251  -10.31186
      H1   -19.35722    7.14691   -9.88789
       H   -12.58358    3.97079   -4.33341
       O   -12.06398    3.15627   -4.08688
      H1   -11.25983    3.38366   -4.52701
       H   -15.19924    2.42217   -6.68975
       O   -16.03785    2.66355   -6.36669
      H1   -15.96179    2.73243   -5.39774
       H   -19.76636   11.67933   -6.75021
       O   -18.97101   11.31864   -6.26149
      H1   -19.06397   10.37453   -6.25959
       H   -11.02860    5.03951   -9.47562
       O   -11.95499    5.33732   -9.60332
      H1   -11.76755    6.23662   -9.87904
       H   -10.83530    2.95887   -6.85264
       O   -11.20476    2.27899   -7.45163
      H1   -12.14938    2.49539   -7.30402
       H   -15.78001    2.05579   -2.92297
       O   -15.91186    2.83197   -3.40650
      H1   -16.87880    2.81889   -3.64173
       H   -18.40200   -1.74280   -4.18550
       O   -18.19634   -0.90402   -3.73663
      H1   -17.83554   -1.26265   -2.87443
       H   -19.23368    1.85896   -4.22592
       O   -19.80602    1.13600   -4.47744
      H1   -19.31332    0.42134   -4.08103
       H   -18.35665    7.67890   -3.66640
       O   -19.09015    8.24014   -3.78715
      H1   -18.78707    9.09992   -3.66077
       H   -17.82276    9.26877  -10.80636
       O   -17.19022    9.94701  -10.60344
      H1   -17.68020   10.55508  -10.04457
       H   -13.37675    8.90683   -4.66232
       O   -14.20528    8.36417   -4.46631
      H1   -14.75679    8.44839   -5.23456
       H   -14.32134    4.76107   -1.54566
       O   -15.23892    5.04164   -1.78202
      H1   -15.50719    4.39094   -2.50605
       H   -15.31837    9.11900  -10.22804
       O   -14.48553    9.07051   -9.67680
      H1   -13.93680    9.57522  -10.26417
       H   -19.23344    3.86242   -3.17198
       O   -18.77997    4.01653   -3.95860
      H1   -18.28104    4.90136   -3.74856

