90
frame 2 | Written by MDAnalysis XYZWriter (release 2.4.3)
       H   -13.18291    0.35793  -10.81007
       O   -12.89189    1.23665  -10.46113
      H1   -13.12770    1.98520  -11.05661
       H   -17.19128   -3.75196  -14.90789
       O   -16.41908   -3.86499  -15.51116
      H1   -16.75366   -3.69753  -16.37922
       H   -11.59015   -2.07310  -16.50538
       O   -12.18992   -1.34461  -16.58961
      H1   -12.89133   -1.59808  -15.90376
       H   -10.15594   -7.91258   -9.58480
       O   -11.10800   -7.72160   -9.84417
      H1   -11.15198   -6.79580  -10.14152
       H   -19.15159   -2.42522  -14.41217
       O   -18.48758   -2.90683  -13.90142
      H1   -17.77154   -2.28746  -13.58735
       H   -13.16051   -3.83958   -8.49582
       O   -12.76593   -2.93475   -8.61559
      H1   -12.60180   -2.76808   -7.68059
       H    -8.76151   -5.69019  -12.23451
       O    -9.26533   -5.96162  -13.00306
      H1    -9.45518   -5.12249  -13.53042
       H   -11.21998   -5.96153  -12.28395
       O   -11.80069   -5.66581  -11.54337
      H1   -12.58504   -6.15104  -11.75042
       H    -8.95224   -4.44601  -10.57578
       O    -8.02581   -4.66814  -10.71377
      H1    -7.63858   -3.80315  -10.52516
       H   -16.67792   -1.12088  -12.19077
       O   -16.23194   -1.38117  -12.98475
      H1   -16.60926   -0.71640  -13.56154
       H   -11.00662   -3.26668   -9.66431
       O   -10.54783   -3.35685  -10.57003
      H1   -11.17244   -4.01248  -10.95237
       H    -8.57430   -2.32014  -13.65930
       O    -8.22067   -1.58281  -13.21904
      H1    -7.49304   -1.96447  -12.73180
       H   -13.96098   -2.15462  -19.73756
       O   -13.36225   -2.29539  -19.00217
      H1   -13.52857   -1.57329  -18.43927
       H   -15.67159   -1.32962  -10.36026
       O   -16.59504   -1.11306  -10.11360
      H1   -16.99868   -2.02492  -10.11966
       H   -12.56840   -1.91913  -13.43906
       O   -12.63663   -0.97668  -13.45549
      H1   -11.69069   -0.69785  -13.56723
       H   -10.70663   -3.40898  -14.01965
       O    -9.79160   -3.62701  -14.23965
      H1    -9.58472   -3.39896  -15.14108
       H   -13.42341   -1.61722  -11.30987
       O   -13.80600   -1.32817  -10.47811
      H1   -13.38626   -1.92959   -9.86786
       H   -11.42099    0.16527  -17.01289
       O   -11.14234    0.87427  -17.62846
      H1   -10.25730    1.04963  -17.35442
       H   -15.52257   -2.99001  -13.25696
       O   -15.42852   -3.91726  -12.99333
      H1   -14.89985   -4.36586  -13.68912
       H    -9.41518   -1.57047  -17.14763
       O    -9.59123   -2.53563  -17.15537
      H1    -9.61788   -2.71738  -18.10285
       H    -9.42792   -0.52140  -13.42655
       O   -10.16616    0.06783  -13.64711
      H1    -9.86608    0.88262  -13.24849
       H   -12.98673   -4.06710  -12.85176
       O   -12.52082   -3.56569  -13.51536
      H1   -12.49979   -4.22906  -14.23463
       H   -13.91680    0.47081  -13.57976
       O   -14.41707    1.07379  -14.21493
      H1   -15.15271    1.43286  -13.69393
       H   -15.43336   -6.31447  -15.18496
       O   -16.05631   -7.10120  -15.15466
      H1   -15.64407   -7.58490  -14.44631
       H   -13.63504   -4.74976  -15.77662
       O   -13.92711   -5.35662  -15.06355
      H1   -13.51385   -6.19417  -15.44805
       H   -14.16693   -5.56084   -9.76094
       O   -13.58177   -5.45737   -8.97303
      H1   -13.34294   -6.39639   -8.70731
       H   -12.73146   -5.06936  -17.90233
       O   -12.56854   -4.42845  -17.22824
      H1   -12.78749   -3.63821  -17.76145
       H   -15.67314   -6.56255  -11.00667
       O   -14.88159   -6.09045  -11.32683
      H1   -15.26575   -5.42774  -11.87742
       H   -15.31394   -2.47832  -15.67452
       O   -14.77721   -1.65949  -15.73074
      H1   -14.85443   -1.22074  -14.88854
       H   -12.64981   -7.89483  -16.24355
       O   -12.92577   -7.28694  -16.96471
      H1   -12.04313   -7.10784  -17.22367

