90
frame 2 | Written by MDAnalysis XYZWriter (release 2.4.3)
       H    -2.26704    0.51637  -13.50952
       O    -1.62799   -0.03693  -13.03136
      H1    -2.22298   -0.38623  -12.33384
       H    -2.02351   -3.04744  -13.39237
       O    -2.16923   -2.53032  -14.19357
      H1    -1.88408   -1.65813  -13.98435
       H    -3.78339    2.01757  -18.21944
       O    -2.96229    1.94699  -17.63563
      H1    -2.58298    1.18691  -18.06405
       H    -5.44129   -1.53517  -14.28670
       O    -5.46527   -1.04428  -15.13892
      H1    -5.67217   -0.16122  -14.74969
       H    -4.41036   -0.70545  -16.75276
       O    -4.41314   -0.79263  -17.73610
      H1    -5.31126   -1.17675  -17.89160
       H     0.83393   -2.64048  -12.82215
       O     0.58156   -2.64691  -11.88710
      H1     1.17305   -3.35138  -11.58222
       H    -0.57809    1.36277  -12.32528
       O    -0.03984    2.10870  -12.16376
      H1    -0.65601    2.67744  -11.64515
       H    -6.06352   -5.11105  -13.78605
       O    -5.94806   -4.91002  -12.88190
      H1    -6.87491   -4.55165  -12.75923
       H    -2.86894   -5.43086  -10.83814
       O    -2.97138   -6.37707  -10.49877
      H1    -3.85755   -6.29813  -10.06978
       H    -1.35248   -7.05348  -13.49572
       O    -0.81846   -6.29399  -13.31404
      H1    -0.06627   -6.63581  -12.73537
       H     4.15988   -5.25180  -14.97722
       O     4.22463   -5.98291  -15.58532
      H1     3.46728   -5.93346  -16.17865
       H     2.42158    0.36852  -16.32884
       O     3.30106    0.42884  -16.54176
      H1     3.68904    0.70342  -15.72640
       H    -1.13461   -2.69110  -17.34816
       O    -1.25142   -3.43716  -16.70680
      H1    -1.45627   -2.96633  -15.88688
       H     2.45747   -1.47850  -12.10183
       O     3.38325   -1.43542  -11.88926
      H1     3.71538   -0.63335  -12.33427
       H    -0.29776    0.13981  -19.23508
       O    -0.90387   -0.03219  -18.48236
      H1    -1.26151   -0.87036  -18.72034
       H    -3.06999    1.42454  -15.70127
       O    -3.24022    1.44341  -14.71138
      H1    -3.03686    2.40320  -14.46306
       H    -1.33603   -3.38079  -11.76888
       O    -2.10175   -3.96417  -11.86143
      H1    -1.72492   -4.78651  -12.28910
       H     0.75415   -6.10826  -15.86866
       O     0.42594   -6.96987  -15.69698
      H1     0.14946   -6.87405  -14.77548
       H    -2.79859   -3.72334  -17.42607
       O    -3.53100   -3.82849  -18.05377
      H1    -3.98426   -2.96835  -18.05178
       H     0.89812   -6.33713  -18.87359
       O     1.73813   -5.99809  -18.51756
      H1     2.04435   -5.56098  -19.32025
       H    -1.13170   -9.65945  -16.72034
       O    -1.56710   -8.77538  -16.84730
      H1    -0.77914   -8.22406  -16.57716
       H    -3.95091   -1.61491  -11.68409
       O    -3.64861   -0.80930  -11.19931
      H1    -4.21407   -0.05152  -11.35371
       H     3.67340   -3.04819  -13.33217
       O     3.93060   -3.82792  -13.88377
      H1     4.35672   -3.25462  -14.62157
       H    -3.90146   -2.69477  -13.38703
       O    -4.79080   -2.50715  -12.97570
      H1    -5.13994   -3.40193  -12.71270
       H    -0.69653    3.17759  -15.87428
       O    -0.38197    2.81561  -16.72492
      H1    -1.13683    2.33024  -17.13094
       H     4.02492   -1.15736  -15.79209
       O     4.70338   -1.89660  -15.85869
      H1     5.07355   -1.79824  -16.74131
       H     0.18602    0.73300  -15.82745
       O     0.60406   -0.01103  -16.29146
      H1     0.15502   -0.10122  -17.12973
       H    -6.74304   -4.88481  -16.67671
       O    -6.50673   -4.41965  -17.47125
      H1    -5.52474   -4.33091  -17.35981
       H     1.70223   -4.74238  -17.26988
       O     1.40506   -4.16748  -16.50079
      H1     0.45412   -4.03772  -16.67007
       H     1.57717   -2.75810  -15.37324
       O     1.68173   -2.03606  -14.65683
      H1     1.24290   -1.25713  -15.08084

