90
frame 2 | Written by MDAnalysis XYZWriter (release 2.4.3)
       H     7.13337   -8.24876   -1.82539
       O     7.80602   -8.69139   -1.21264
      H1     7.14747   -9.15559   -0.70587
       H     7.63134  -13.22274    3.44683
       O     8.44678  -12.65918    3.44426
      H1     8.07854  -11.77534    3.07093
       H     6.51432   -4.03124    2.13003
       O     5.78908   -3.82171    1.52115
      H1     6.29122   -3.34716    0.85176
       H     8.94158   -9.79712    3.43594
       O     8.34706   -9.98264    2.65310
      H1     7.70336   -9.28456    2.76077
       H     4.73165   -3.09904    3.02458
       O     3.99046   -2.65719    3.47013
      H1     3.34331   -3.39443    3.47683
       H     4.36168   -2.96353   -0.97129
       O     3.49521   -3.36071   -1.04432
      H1     3.63796   -4.32684   -0.85467
       H     4.52568   -9.94610    5.27098
       O     3.71644   -9.62351    4.82545
      H1     3.67217  -10.14561    4.03363
       H     8.30599   -4.56857    3.36161
       O     7.38481   -4.87172    3.43204
      H1     7.50601   -5.30460    4.29619
       H    10.50679   -6.91460   -1.23367
       O     9.60053   -6.65262   -1.03342
      H1     9.09663   -7.46898   -1.14341
       H     4.09815   -7.97185   -0.16167
       O     4.44767   -8.56060    0.52651
      H1     4.16710   -8.09530    1.29860
       H     7.07549   -6.39414    0.13724
       O     6.54041   -5.84556   -0.45716
      H1     6.19311   -5.14660    0.14709
       H     2.12650  -10.60547    1.63437
       O     2.30219  -10.68722    2.56877
      H1     3.09238  -11.23503    2.54161
       H     9.17370   -8.20463    5.27741
       O     9.73263   -8.98856    5.18174
      H1    10.61361   -8.66162    5.41488
       H     5.92890   -6.60326   -3.49882
       O     5.57921   -7.09509   -2.72222
      H1     6.04590   -6.63853   -1.98553
       H     5.15262  -13.07330    2.56281
       O     4.65509  -12.37003    2.05130
      H1     5.20080  -12.13033    1.31197
       H     9.37534   -4.93916   -1.48305
       O     9.65576   -4.00000   -1.60521
      H1    10.55211   -4.25793   -1.97426
       H     7.48575   -1.91752   -0.85311
       O     7.00645   -2.72377   -0.57411
      H1     7.50775   -3.37480   -1.11552
       H     2.28243   -4.31059    1.28675
       O     1.39569   -4.53792    0.94742
      H1     0.92188   -3.71698    0.84381
       H     3.40150   -6.14796    3.22184
       O     3.94230   -6.92808    3.00171
      H1     3.68953   -7.74183    3.45012
       H     2.53010   -6.19452   -1.51712
       O     3.44337   -6.25367   -1.16233
      H1     3.96917   -6.11767   -1.91922
       H     0.74905   -9.04326    3.80416
       O     1.14251   -8.22077    3.67567
      H1     1.31062   -8.13942    2.70226
       H     9.13017  -10.00340   -1.35818
       O     9.91707  -10.41055   -1.71191
      H1     9.71870  -11.33688   -1.60875
       H     4.89560   -8.79529   -3.20299
       O     4.24948   -9.36410   -3.66121
      H1     3.98749   -9.91924   -2.91372
       H     6.97717  -10.25782    0.96173
       O     6.32321  -10.53241    0.29434
      H1     5.52535   -9.99057    0.42377
       H     1.80040   -4.75932    4.46850
       O     2.27211   -4.68547    3.63741
      H1     1.53936   -4.81861    3.09584
       H    11.45384   -4.96914    1.00991
       O    10.93669   -5.69559    1.38874
      H1    10.57255   -6.06324    0.54687
       H     0.88986   -7.73320    0.16153
       O     0.82254   -7.48299    1.13318
      H1     0.96866   -6.53934    1.08968
       H     6.02845   -7.49758    1.75590
       O     6.93190   -7.60803    2.07683
      H1     7.14785   -6.73307    2.48778
       H     7.74659   -6.22570    6.42816
       O     7.95727   -6.57644    5.53249
      H1     8.92205   -6.40863    5.57265
       H    10.32864   -5.17033    2.95345
       O    10.16601   -5.34874    3.93351
      H1    10.99345   -4.99597    4.35289

