90
frame 2 | Written by MDAnalysis XYZWriter (release 2.4.3)
       H     5.37823   11.69505   15.25033
       O     6.19902   11.27548   14.95368
      H1     6.91828   11.93966   15.14700
       H     3.10238   11.98123   18.95959
       O     2.29679   12.42924   19.38764
      H1     2.44683   13.39133   19.28226
       H     0.79915   15.02296   16.77902
       O     1.64280   14.87403   17.23335
      H1     1.40198   14.93113   18.18541
       H     7.73631   10.37930   18.58553
       O     7.46453   11.30053   18.86061
      H1     7.12646   11.13982   19.76691
       H     3.12111   17.53429   14.66504
       O     4.07139   17.53931   14.86262
      H1     4.40015   17.73675   13.97865
       H     4.39474   11.67440   17.49298
       O     4.71986   11.44987   18.34746
      H1     5.71229   11.57443   18.28287
       H     0.29989   19.97418   19.37000
       O     0.25802   19.25637   18.70975
      H1     1.10277   18.70253   18.72979
       H     9.84031   17.97262   17.62997
       O    10.44879   17.20675   17.79154
      H1    11.28021   17.69381   17.72613
       H    10.43787   19.81145   15.34621
       O    11.31522   19.44157   14.96226
      H1    11.74604   19.19019   15.74635
       H     3.68262   19.67965   12.47286
       O     4.39880   19.21045   11.99423
      H1     3.90116   18.63723   11.32494
       H     1.17267   16.96706   14.92862
       O     1.50529   17.46154   14.18125
      H1     1.28786   16.89989   13.38652
       H     9.24365   11.69387   14.14918
       O     9.00668   12.29298   14.89123
      H1     9.17106   13.21137   14.59448
       H     9.00850   17.76666   14.12479
       O     9.91947   17.40468   14.23345
      H1    10.43533   18.11017   14.62717
       H    11.39314   15.11150   15.09119
       O    11.64253   15.10661   14.09298
      H1    11.47308   15.99410   13.79407
       H     0.05478   18.62033   13.85605
       O    -0.69799   19.02880   13.43337
      H1    -1.21429   19.31334   14.16166
       H     7.73650   15.38903   14.50472
       O     8.42811   15.09007   15.10228
      H1     9.13672   15.61770   14.76388
       H     2.30181   16.86713   17.96767
       O     2.45829   17.58072   18.53003
      H1     2.91748   18.14461   17.89132
       H     6.76829   18.09693   14.27046
       O     7.40435   18.06379   13.57651
      H1     6.84728   17.73986   12.81690
       H     4.13853   15.41548   19.72018
       O     3.88610   14.63040   19.20771
      H1     4.52119   14.59195   18.44555
       H    10.90232   15.75323   17.26132
       O    10.93338   14.88030   16.77592
      H1    10.06895   14.50024   17.17185
       H     5.44924   14.29075   16.08010
       O     5.35586   14.17407   17.07906
      H1     6.30695   14.42241   17.25930
       H     5.66689   18.35343   18.96464
       O     6.26602   18.24866   19.76494
      H1     6.26688   17.30436   19.76751
       H     4.27411   18.66846   16.53858
       O     4.15483   19.24814   17.31533
      H1     3.71957   19.98346   16.87224
       H    12.48279   19.50827   17.69377
       O    12.72476   18.73054   17.12781
      H1    13.65318   19.06635   16.91492
       H     2.57113   11.46276   15.99662
       O     3.32736   11.93543   15.67349
      H1     3.29770   12.78250   16.12630
       H     1.27759   12.18514   18.08297
       O     0.99131   11.99603   17.15989
      H1     0.71845   12.91801   16.92347
       H     4.83150   14.53551   13.85550
       O     5.28414   14.92816   14.60157
      H1     4.83697   15.74757   14.78786
       H     9.13811   11.75863   19.48772
       O    10.00117   12.12891   19.70891
      H1    10.60295   11.92139   18.98718
       H    -0.76097   17.78000   18.96000
       O    -1.62791   17.40092   18.66825
      H1    -1.26677   16.69429   18.10230
       H     8.31458   14.63726   16.89499
       O     8.51686   14.22207   17.80386
      H1     8.47895   13.27335   17.63862

