90
frame 2 | Written by MDAnalysis XYZWriter (release 2.4.3)
       H    11.52225   -7.32141    2.82655
       O    12.26555   -7.73201    3.21410
      H1    12.77089   -7.86534    2.37205
       H    16.36198   -0.07786    3.03977
       O    16.48846   -1.01516    3.35847
      H1    15.70098   -1.47677    3.03685
       H    12.48377   -5.91104   -1.88551
       O    12.44454   -4.92017   -2.06713
      H1    13.37763   -4.71191   -2.24864
       H    13.01211   -7.96851   -0.87296
       O    12.70033   -7.54771   -1.72005
      H1    13.23220   -8.00906   -2.43693
       H    12.53364   -3.69480   -0.31462
       O    12.49357   -3.56192    0.63389
      H1    11.65540   -3.03662    0.60476
       H    14.34989   -3.69161    2.99911
       O    14.28181   -2.81296    2.61651
      H1    13.67797   -2.86250    1.87004
       H    17.90215   -3.47084   -1.89672
       O    17.08095   -3.01933   -1.53966
      H1    16.99532   -2.20423   -2.08392
       H    13.94242   -6.14093    5.03894
       O    12.97099   -6.12573    5.20723
      H1    12.67255   -6.68083    4.45039
       H    16.18856   -9.26091    1.80133
       O    16.23136   -8.38859    1.29485
      H1    16.74312   -8.56526    0.45611
       H    13.85433   -1.59173   -0.40258
       O    14.61765   -0.96475   -0.39747
      H1    14.62283   -0.78014   -1.32287
       H    10.50679   -6.91460   -1.23367
       O     9.60053   -6.65262   -1.03342
      H1     9.09663   -7.46898   -1.14341
       H    15.74288   -2.97309    1.67133
       O    16.67330   -3.27262    1.45326
      H1    16.86473   -2.99501    0.49614
       H    14.66105   -4.44554    7.66686
       O    15.26224   -5.01648    8.22895
      H1    14.73185   -4.97767    9.02853
       H    18.39554   -4.58146    0.66331
       O    18.82775   -5.42769    0.68882
      H1    19.58923   -5.26847    1.19664
       H    14.48119   -8.39806    0.92562
       O    13.52938   -8.27059    0.82065
      H1    13.17264   -9.21661    0.93629
       H    11.92188  -11.04058    4.15527
       O    12.08641  -10.50767    3.34654
      H1    11.75942   -9.65023    3.66967
       H    16.66166   -6.91141    5.12619
       O    17.15444   -6.65550    5.88881
      H1    17.52723   -5.78635    5.65740
       H    18.64801   -9.36658    4.54838
       O    19.16597   -8.91607    3.92605
      H1    18.75836   -8.10369    3.61922
       H    12.14889   -8.76314    7.78758
       O    12.37617   -8.81947    6.86079
      H1    12.88031   -8.03457    6.62204
       H    15.87539   -5.53987   -2.47054
       O    15.26256   -4.79000   -2.54339
      H1    15.76919   -4.10501   -2.15729
       H    16.96124   -7.41348    2.58893
       O    17.39591   -6.70950    3.11864
      H1    18.02587   -6.25923    2.47832
       H    11.45384   -4.96914    1.00991
       O    10.93669   -5.69559    1.38874
      H1    10.57255   -6.06324    0.54687
       H    12.17740   -3.19846    3.49993
       O    11.66251   -2.62371    4.05415
      H1    12.33387   -2.60333    4.81566
       H    11.51975   -4.20359    7.37284
       O    12.30084   -4.75320    7.62548
      H1    12.51439   -5.25510    6.79821
       H    13.83712  -10.53222    2.96468
       O    14.84150  -10.51102    2.89380
      H1    15.13581  -11.33236    2.46125
       H    13.08227    0.17470    1.63312
       O    12.66907   -0.10380    2.46839
      H1    13.32695   -0.78731    2.71097
       H    15.64342   -9.87890    4.53529
       O    15.90670   -9.44823    5.34992
      H1    16.62509  -10.07411    5.54788
       H    15.78111   -5.60621    2.91742
       O    14.84579   -5.39066    3.13154
      H1    14.32759   -5.72908    2.33118
       H    10.32864   -5.17033    2.95345
       O    10.16601   -5.34874    3.93351
      H1    10.99345   -4.99597    4.35289
       H    14.39741   -2.51938    6.19543
       O    13.78176   -3.25916    6.03676
      H1    13.50511   -3.43726    6.92097

