90
frame 2 | Written by MDAnalysis XYZWriter (release 2.4.3)
       H     7.87317  -15.94323    4.92365
       O     8.24281  -15.34368    5.63384
      H1     9.09190  -15.02881    5.27373
       H     9.62433  -15.08234   15.83259
       O     9.11709  -15.17519   16.64150
      H1     9.47682  -14.42134   17.10445
       H     6.47816  -18.93026    6.97331
       O     5.87556  -18.20369    6.71444
      H1     6.34912  -17.80254    5.92317
       H     9.74708  -16.80847    7.64095
       O     8.80020  -17.07618    7.65574
      H1     8.35604  -16.40600    7.01650
       H     8.65869  -18.60848   13.63706
       O     8.29809  -18.24073   14.44837
      H1     7.37771  -18.62485   14.39842
       H     2.64477  -17.18898   12.60374
       O     2.64315  -18.03557   13.04684
      H1     1.79081  -18.35476   12.74759
       H     4.04647  -20.02493    4.56534
       O     3.70465  -19.44578    5.33427
      H1     4.46837  -19.26710    5.93686
       H    10.65498  -15.40719   11.21992
       O    11.25476  -15.59834   12.04187
      H1    12.13739  -15.45442   11.65179
       H     4.74561  -17.53192    7.82373
       O     4.05228  -17.61462    8.53122
      H1     4.63596  -17.75861    9.35932
       H    10.68331  -13.53119   14.36008
       O    11.18674  -14.20452   14.76555
      H1    11.31030  -14.78621   13.99630
       H     5.25712  -18.74357   13.52496
       O     5.55111  -18.91442   14.44278
      H1     5.71534  -18.09923   14.90765
       H     5.15047  -18.06571   17.61913
       O     5.64395  -17.56697   17.02147
      H1     5.09889  -16.78052   16.89891
       H    13.19470  -14.34180   10.21803
       O    13.44719  -15.18404   10.57965
      H1    14.18679  -14.89392   11.17208
       H     8.44092  -18.99232   10.98173
       O     8.14063  -18.27086   11.63889
      H1     7.21430  -18.16745   11.25615
       H     4.56038  -13.85994   11.27237
       O     3.87919  -13.23559   10.87342
      H1     3.89064  -13.39784    9.93935
       H     7.09185  -15.44236   11.24938
       O     6.24267  -15.01546   11.48858
      H1     6.15432  -15.24370   12.43619
       H    14.33418  -15.65194    7.82839
       O    14.68784  -16.35781    8.43827
      H1    14.23210  -16.15038    9.27377
       H     8.78221  -18.86763   17.45658
       O     8.92248  -19.54745   16.74333
      H1     8.45059  -19.06001   16.02404
       H    12.00705  -16.27454    6.98362
       O    11.51528  -17.03790    7.30789
      H1    11.88233  -17.30690    8.18991
       H    12.80079  -18.76103    9.81809
       O    11.98109  -18.26068    9.94067
      H1    12.11197  -17.76664   10.71914
       H     2.49263  -19.04771    8.00450
       O     1.55884  -19.31921    8.19755
      H1     1.04750  -19.22321    7.36883
       H     3.15444  -16.46488    7.49460
       O     3.19768  -15.76810    6.83149
      H1     3.96795  -15.25890    7.08453
       H     5.11333  -18.03897   11.48128
       O     5.60187  -17.64085   10.80002
      H1     5.53503  -16.67390   11.03828
       H     8.48262  -16.74776   11.05573
       O     8.69873  -16.01821   10.42399
      H1     8.62776  -16.52471    9.58864
       H     2.45565  -14.71340   13.29686
       O     2.91770  -15.13596   12.53978
      H1     3.04405  -14.37034   11.96484
       H     6.62939  -14.24428    9.21933
       O     6.22322  -14.03902    8.37840
      H1     5.80203  -13.17701    8.48063
       H    12.48277  -19.92537   12.23567
       O    13.28466  -19.34445   12.14140
      H1    13.41975  -19.03691   13.06991
       H     6.77518  -15.42286   14.34739
       O     6.83182  -16.15836   13.75926
      H1     7.63190  -16.60159   14.19660
       H     9.12577  -18.77836    4.95555
       O     9.14081  -19.05065    5.91405
      H1     9.26372  -18.15327    6.33776
       H    11.94105  -16.84637   13.27722
       O    12.23045  -17.01509   14.18446
      H1    12.03545  -17.94574   14.31766

