90
frame 2 | Written by MDAnalysis XYZWriter (release 2.4.3)
       H    -2.44007    4.51202    4.36316
       O    -2.70177    4.63824    3.44592
      H1    -3.48145    5.21825    3.54357
       H    -1.22947    1.32171   14.13006
       O    -1.54843    2.16297   14.45288
      H1    -1.03526    2.81933   13.99045
       H     0.41918    5.31336    6.28116
       O     0.80824    4.50614    5.92466
      H1     0.81485    4.62221    4.98567
       H    -4.08590    8.01031    9.59521
       O    -3.55405    7.25887    9.30348
      H1    -3.03236    7.72367    8.59570
       H     1.34730    0.90891    6.12719
       O     1.26834    0.46931    7.02053
      H1     0.98316    1.20024    7.60118
       H    -1.35233    3.90395   10.01381
       O    -1.16003    3.54094    9.13618
      H1    -1.82790    4.07697    8.68949
       H     0.66157    3.39506    8.46480
       O     1.52436    3.17750    8.70340
      H1     1.44928    3.70320    9.53378
       H    -4.61782    4.35957    8.53052
       O    -3.73283    4.72211    8.35911
      H1    -3.87348    5.65356    8.68648
       H     4.08227    1.98468    7.32667
       O     4.07449    2.83146    7.85053
      H1     3.14486    2.87594    8.13875
       H    -1.00531   -0.56100    7.83605
       O    -1.34332   -1.21354    8.50978
      H1    -1.56410   -0.60260    9.22584
       H     1.37584    0.12417   11.41317
       O     2.02746   -0.65843   11.36439
      H1     1.63196   -1.26622   10.66646
       H    -3.87634    2.95465   13.20296
       O    -4.56621    2.27858   13.55415
      H1    -4.03937    1.50187   13.74568
       H    -6.30950    3.57676   10.80656
       O    -5.71905    3.04096   10.23832
      H1    -6.39713    2.50122    9.77570
       H     1.35382    5.18546   11.17572
       O     1.94007    4.44026   11.09409
      H1     1.93628    4.07209   12.04511
       H    -4.29870    1.15854    8.17165
       O    -4.77187    1.45006    7.39594
      H1    -4.92308    0.60170    6.99866
       H    -2.15477    7.54900   10.45372
       O    -1.21543    7.31366   10.74285
      H1    -0.84243    7.29928    9.81843
       H    -1.96085    3.74474    6.34314
       O    -1.55893    3.33790    5.55110
      H1    -0.65333    3.67199    5.67965
       H    -7.01153    5.80175    7.25298
       O    -7.20923    6.56510    7.80264
      H1    -8.03215    6.27709    8.19727
       H    -3.41584    5.62713   14.04999
       O    -3.62639    5.01882   13.30441
      H1    -4.49310    5.34944   13.06138
       H     0.87536    2.26095   11.63205
       O     0.57919    1.49488   11.05718
      H1     0.80768    1.94479   10.21128
       H     0.43658    7.23414    7.44412
       O    -0.09412    6.41108    7.74106
      H1    -0.99921    6.70739    7.52105
       H    -2.27681    5.01342   12.16453
       O    -1.64875    4.80910   11.41418
      H1    -1.38979    5.68616   11.15571
       H    -5.71952    7.16268   11.69292
       O    -6.12087    6.38185   12.09195
      H1    -7.08318    6.40413   11.78932
       H    -2.53134    0.50647   10.65140
       O    -1.80404   -0.13474   10.93910
      H1    -1.04328    0.45793   11.17524
       H    -2.28022    8.95060    7.82497
       O    -2.08730    8.15715    7.23384
      H1    -1.85476    8.65925    6.47999
       H     0.64182    7.52057   11.51359
       O     1.36203    7.65052   12.19270
      H1     0.97844    7.37786   12.99096
       H     2.60745    8.12633    7.09281
       O     1.75724    8.12788    6.54324
      H1     1.85265    8.92512    6.06197
       H     2.31152    2.18590   13.48774
       O     1.66343    2.91453   13.23634
      H1     1.81379    3.52937   13.95370
       H    -2.61553    2.37229    9.85262
       O    -3.31745    1.73148   10.00810
      H1    -4.12969    2.30328   10.11624
       H    -4.93531    2.57963    5.33928
       O    -4.71492    2.50063    4.42469
      H1    -4.10712    3.26858    4.29366

