90
frame 2 | Written by MDAnalysis XYZWriter (release 2.4.3)
       H    -0.92929   -8.66485   16.09473
       O    -1.15217   -7.72312   16.36324
      H1    -0.85212   -7.21003   15.57032
       H     0.23828   -9.74635   10.00506
       O     0.53763   -9.21726   10.81098
      H1     0.76432   -9.94576   11.40927
       H     2.56687   -1.41565   14.65489
       O     3.19369   -0.64044   14.68984
      H1     2.67653   -0.24940   15.41151
       H     1.63747   -1.31488   17.51343
       O     1.24939   -2.13089   17.11640
      H1     1.68823   -2.80350   17.63779
       H    -1.98274   -4.45363   11.68694
       O    -1.23729   -3.83607   11.52139
      H1    -0.92924   -4.38179   10.72457
       H    -3.15165   -8.67208   16.25193
       O    -3.64872   -9.49906   16.20502
      H1    -4.52397   -9.05972   16.09588
       H     0.83564   -6.97549   16.94957
       O     1.76593   -6.87719   17.03511
      H1     2.02142   -7.66538   16.43313
       H    -2.72956   -1.66745   17.13051
       O    -3.10992   -2.58613   17.17208
      H1    -2.33046   -3.13217   16.84960
       H     0.14142   -3.06950   13.94128
       O    -0.81487   -3.33139   14.16810
      H1    -1.16481   -3.55128   13.27326
       H     0.62663   -7.09701   12.32056
       O     1.48685   -6.96698   11.88646
      H1     1.52517   -7.62791   11.18034
       H     2.65432   -9.40795   15.85635
       O     2.08003   -8.92887   15.27242
      H1     2.71182   -8.58715   14.62821
       H     3.33515   -7.30600   13.26485
       O     4.00683   -7.96558   13.41835
      H1     3.74445   -8.64337   12.80779
       H     1.04526   -9.49380   19.42421
       O     0.51003   -9.03923   18.75631
      H1     1.00876   -8.29500   18.48304
       H     1.79687   -3.28042   12.40074
       O     1.66810   -2.66596   13.18680
      H1     1.74625   -1.84694   12.63025
       H    -0.88129   -0.46008   13.80537
       O    -0.12701   -0.12788   14.23649
      H1    -0.15632   -0.58793   15.06360
       H    -0.29822   -4.81663   18.20381
       O    -0.19544   -5.70413   18.64376
      H1    -0.91780   -6.16906   18.25608
       H     0.55413   -5.71780    9.68688
       O    -0.32026   -6.03310    9.88968
      H1    -0.55087   -6.42605    9.03256
       H    -0.94259   -3.61649   15.81504
       O    -0.73381   -3.83522   16.72558
      H1    -0.19399   -3.03879   16.93455
       H     0.51459   -6.04214   14.60655
       O    -0.43021   -5.97348   14.44749
      H1    -0.64213   -5.02400   14.53158
       H     2.65400   -5.90169   15.45457
       O     2.36730   -5.74828   14.52754
      H1     2.69413   -4.85928   14.30009
       H    -3.04489   -8.70742   12.98379
       O    -3.75326   -9.22021   13.38183
      H1    -3.45876   -9.21625   14.34596
       H    -0.73757  -10.85501   15.30131
       O    -0.25981  -10.28902   15.91672
      H1     0.57346  -10.11872   15.53951
       H    -3.21668   -5.22165   19.33292
       O    -3.42842   -5.81669   18.54661
      H1    -2.92621   -6.59545   18.73089
       H    -3.30258   -5.26137   13.30823
       O    -3.53397   -4.83031   12.52585
      H1    -4.50662   -4.87768   12.64216
       H     1.74499   -4.80552   17.96030
       O     2.48260   -4.41720   18.42017
      H1     3.27578   -4.79085   17.91619
       H     3.79206   -2.75580   16.06614
       O     4.02379   -3.57495   15.63753
      H1     4.77153   -3.35379   15.04101
       H     1.84508   -5.34318   11.31939
       O     2.10303   -4.47184   10.97435
      H1     1.28000   -4.20101   10.57256
       H     4.38780   -5.24905   11.02845
       O     5.11643   -5.64447   11.49338
      H1     4.90690   -5.25384   12.35639
       H    -1.54078   -6.84222   11.25086
       O    -2.36636   -7.05995   11.64879
      H1    -2.76888   -6.14833   11.65500
       H    -3.12114   -5.65342   15.94384
       O    -3.76232   -5.86808   15.26082
      H1    -4.61895   -5.70063   15.71485

