90
frame 2 | Written by MDAnalysis XYZWriter (release 2.4.3)
       H   -12.41857   10.50580  -18.45508
       O   -12.85148   10.99565  -19.11616
      H1   -13.65646   10.53317  -19.26229
       H   -13.05211    8.78470  -14.24159
       O   -13.83244    9.19699  -13.83051
      H1   -14.50799    9.00739  -14.46129
       H   -17.90903   16.43311  -17.54210
       O   -17.00217   16.53694  -17.87456
      H1   -16.97611   16.03162  -18.69525
       H    -9.18423   13.20230  -14.43301
       O    -9.70429   12.57722  -14.97972
      H1   -10.52542   12.37615  -14.43026
       H   -10.92365    7.02335  -15.32759
       O   -11.06089    7.91640  -14.96820
      H1   -11.29865    8.38842  -15.80893
       H   -17.24212    7.04178  -17.39055
       O   -17.31492    6.03687  -17.38331
      H1   -17.21297    5.82536  -16.45317
       H    -4.92641   10.66994  -17.35293
       O    -5.35509   11.55338  -17.05102
      H1    -6.28057   11.22011  -16.87369
       H    -9.38559    8.33504  -15.75535
       O    -8.57360    8.14417  -16.26435
      H1    -8.14654    7.45259  -15.69913
       H    -8.05663    9.92289  -16.61258
       O    -8.01290   10.82947  -16.92632
      H1    -8.33093   11.28997  -16.16018
       H   -10.88853    9.00880  -17.82521
       O   -11.36663    9.49775  -17.12569
      H1   -10.83535   10.27298  -16.95289
       H    -5.44065   11.96480  -18.75553
       O    -5.71722   12.67363  -19.43822
      H1    -6.65334   12.41212  -19.61407
       H   -15.64292   11.59793  -14.97853
       O   -16.39775   11.19859  -14.49017
      H1   -16.20261   11.34273  -13.55824
       H   -16.50141   13.57801  -16.82399
       O   -16.56775   12.99223  -17.57650
      H1   -17.23616   12.36030  -17.18486
       H   -13.41283   14.14012  -19.61393
       O   -12.66864   14.55612  -19.18986
      H1   -13.24129   15.00055  -18.57249
       H    -6.50660    8.60913  -18.92655
       O    -7.35533    8.13724  -19.04040
      H1    -7.76790    8.26510  -18.13549
       H   -11.10682   15.75809  -18.17646
       O   -11.03037   16.69993  -17.85910
      H1   -10.08200   16.94340  -17.91401
       H   -12.85997    3.77365  -18.88874
       O   -13.15210    4.60422  -18.58724
      H1   -13.48537    4.35205  -17.71778
       H   -13.77524    7.44196  -12.96001
       O   -13.16905    6.69112  -12.94016
      H1   -12.38844    7.03603  -13.40417
       H   -12.72434   12.30710  -14.13229
       O   -11.94746   12.40877  -13.56182
      H1   -11.86148   13.37263  -13.64680
       H   -15.96910    8.72837  -18.93052
       O   -15.34308    8.84473  -19.64010
      H1   -15.15825    7.92291  -19.77539
       H   -13.76718   11.18943  -15.60763
       O   -13.75358   12.13006  -15.47744
      H1   -13.06572   12.47603  -16.02287
       H    -8.14515   14.15245  -16.69881
       O    -8.20839   14.71968  -17.48225
      H1    -7.25445   14.80574  -17.78879
       H   -10.96698    5.02873  -16.14976
       O   -10.94989    5.35730  -15.23510
      H1   -10.71447    4.54283  -14.79105
       H    -8.12801   11.44619  -18.66119
       O    -8.13282   11.57081  -19.63731
      H1    -8.74249   12.24611  -19.78702
       H   -10.54394   13.06272  -16.46883
       O   -11.13915   12.80305  -17.15784
      H1   -10.65690   13.13502  -17.91900
       H   -11.49932    5.06730  -18.26796
       O   -10.57821    5.42636  -18.16268
      H1   -10.79431    6.36336  -18.33582
       H   -17.69321    9.21666  -17.94627
       O   -17.04947    8.50579  -17.67829
      H1   -16.81879    8.73519  -16.78657
       H   -16.30588    9.54639  -14.83875
       O   -16.11390    8.71061  -15.28230
      H1   -16.75081    8.05819  -14.94111
       H   -17.56824   14.49785  -15.34157
       O   -16.70705   14.91050  -15.53824
      H1   -17.01994   15.56578  -16.18730
       H   -19.23707   10.60791  -18.13994
       O   -18.65104   10.25533  -18.83201
      H1   -18.85072   10.76189  -19.68075

