90
frame 2 | Written by MDAnalysis XYZWriter (release 2.4.3)
       H    -9.84933  -11.02472    9.94469
       O    -9.39652  -10.65059    9.17079
      H1   -10.01087  -10.11417    8.69986
       H   -15.11075  -10.12453   11.58168
       O   -14.19494  -10.03276   11.83500
      H1   -14.15915   -9.07705   11.96411
       H    -8.23484  -11.30543   13.79032
       O    -8.08698  -10.35380   13.95227
      H1    -7.58502  -10.10491   13.14948
       H   -11.90524  -16.86380   17.63397
       O   -11.93644  -17.03718   18.58131
      H1   -12.73880  -16.58781   18.89882
       H   -13.57847  -12.46337   16.15412
       O   -13.70877  -12.12114   15.23420
      H1   -14.10207  -12.93041   14.78036
       H   -14.03748  -13.40921   18.21108
       O   -13.81126  -13.77584   17.30722
      H1   -12.88788  -13.91745   17.38753
       H   -16.73324  -12.87602   16.35699
       O   -16.54484  -12.58884   15.43250
      H1   -15.65108  -12.17851   15.49642
       H   -12.46771  -11.78500   11.19625
       O   -11.89107  -12.46969   10.87184
      H1   -12.42460  -13.21714   10.88344
       H    -9.45193   -7.86450   17.00507
       O   -10.37793   -8.13731   17.20619
      H1   -10.24154   -9.10301   17.41317
       H   -10.47800  -15.31200    9.97830
       O   -10.75445  -16.00523    9.37015
      H1   -11.40185  -15.48039    8.82578
       H   -10.93848  -17.87583   10.31802
       O   -11.20716  -18.62630   10.84570
      H1   -11.42785  -18.04397   11.67737
       H   -15.20587   -8.72020   15.76571
       O   -14.83330   -9.40284   16.34671
      H1   -14.53794  -10.08857   15.78177
       H   -13.69073   -8.55756   17.28916
       O   -13.02500   -8.18855   17.92341
      H1   -12.22717   -8.18386   17.40898
       H    -8.41096  -16.58770   14.75253
       O    -8.79255  -16.07072   15.46809
      H1    -8.73977  -15.12769   15.12724
       H   -11.88814   -8.06116   14.30512
       O   -11.63074   -7.32188   14.85023
      H1   -11.13780   -7.72400   15.60002
       H   -14.93708  -17.35393   10.75114
       O   -14.75416  -17.18689   11.69490
      H1   -15.61992  -16.86208   11.94800
       H   -11.63898  -14.44407   13.74900
       O   -11.27464  -13.67682   14.20821
      H1   -12.15205  -13.28863   14.43864
       H   -13.29911  -15.55971   11.36258
       O   -13.43406  -14.69210   10.95720
      H1   -13.92208  -14.79774   10.11951
       H   -11.29330  -16.40276   13.94097
       O   -11.61626  -16.28766   13.02385
      H1   -10.91633  -15.87562   12.61103
       H   -10.93598  -14.32870   16.58075
       O   -11.04701  -13.75432   17.32794
      H1   -10.91644  -12.79778   16.97610
       H    -8.99849  -14.62682   19.68001
       O    -8.93399  -13.82959   19.19079
      H1    -9.74946  -13.73652   18.69691
       H   -12.98441  -10.18680   13.11069
       O   -12.30570  -10.04974   13.81999
      H1   -12.42968  -10.84705   14.37941
       H   -15.18789  -16.24317   17.41435
       O   -15.69164  -17.05772   17.47668
      H1   -15.10074  -17.72060   17.10920
       H   -17.48223  -11.23149   15.01998
       O   -17.95789  -10.38131   14.71847
      H1   -17.37147   -9.59691   14.95832
       H   -10.38712  -16.74778   15.81053
       O   -11.36479  -16.82350   15.69484
      H1   -11.53463  -17.80257   15.54039
       H   -13.79306  -15.00888   13.61066
       O   -14.30375  -14.14486   13.47202
      H1   -14.36428  -14.05444   12.49272
       H    -9.65978  -13.26982   13.95878
       O    -8.68597  -13.17710   13.81901
      H1    -8.49608  -13.72416   13.02747
       H   -10.22141  -13.66740   10.71838
       O    -9.94151  -14.41565   11.28857
      H1    -8.96859  -14.46269   11.11356
       H   -17.47403  -13.21573   11.61001
       O   -17.23273  -12.80763   12.51736
      H1   -16.71157  -13.39128   13.07249
       H    -9.41048  -10.82507   18.49279
       O   -10.25502  -11.02130   18.07469
      H1   -10.92805  -11.17781   18.78777

