90
frame 2 | Written by MDAnalysis XYZWriter (release 2.4.3)
       H   -12.54151   -8.07574   -2.00570
       O   -12.39619   -8.92326   -1.55630
      H1   -11.50842   -9.13388   -1.92930
       H    -6.83062   -9.19332   -5.64305
       O    -7.67275   -8.82041   -5.35603
      H1    -7.53869   -7.90156   -5.08264
       H   -10.97849   -5.51383   -4.25694
       O   -11.47311   -4.91277   -4.79805
      H1   -11.05941   -5.07637   -5.67320
       H    -8.87077   -8.91552    2.48950
       O    -8.98452   -9.35348    3.35401
      H1    -9.12089   -8.56343    3.84210
       H    -6.55378   -6.57599   -2.92518
       O    -5.93516   -6.70654   -2.21965
      H1    -5.33691   -6.01666   -2.52184
       H    -8.61226  -10.93476   -2.40467
       O    -8.35049  -11.84746   -2.12409
      H1    -7.67067  -11.74955   -1.48148
       H   -11.89311  -13.21681   -3.23515
       O   -12.16570  -13.59099   -4.10538
      H1   -11.85184  -14.50167   -4.05220
       H   -13.84708   -4.24761    0.08578
       O   -12.94166   -4.42682   -0.23485
      H1   -12.56044   -5.04782    0.50270
       H    -9.01241  -13.57105   -1.57456
       O    -8.65295  -14.47810   -1.45781
      H1    -9.19080  -14.76991   -0.68627
       H    -9.75979   -6.95498   -7.74273
       O    -9.58210   -6.19419   -7.18659
      H1    -9.61109   -6.63204   -6.28321
       H    -7.46682   -6.63488   -0.88777
       O    -8.23713   -6.82637   -0.35366
      H1    -8.14387   -6.17502    0.36191
       H   -12.71741  -10.75245   -0.85026
       O   -13.06037  -11.34788   -0.16221
      H1   -13.64763  -11.92216   -0.68837
       H    -9.01572   -9.48050   -6.51541
       O    -9.68799   -9.86173   -7.15233
      H1    -9.80499  -10.74777   -6.68897
       H   -13.79679   -6.94457   -5.49462
       O   -13.35179   -7.75958   -5.73048
      H1   -13.99304   -8.42691   -5.41824
       H    -6.53095  -13.00939   -4.72247
       O    -6.79877  -12.13732   -5.11756
      H1    -6.68176  -11.48201   -4.39618
       H    -9.48707   -8.55921   -1.35406
       O    -9.66076   -9.03728   -2.18905
      H1    -9.99553   -8.43768   -2.86594
       H   -10.58619  -12.61244   -5.21853
       O   -10.23659  -12.38495   -6.07467
      H1   -10.93900  -12.60155   -6.71459
       H   -11.40496   -7.78892   -5.11666
       O   -10.48573   -7.78240   -4.79868
      H1   -10.13285   -8.52643   -5.26989
       H   -10.95646   -5.68279   -1.90091
       O   -10.03856   -5.68276   -1.99457
      H1    -9.69400   -6.24331   -1.25262
       H   -11.35776  -12.36838   -1.07386
       O   -11.03033  -12.48744   -1.97779
      H1   -10.13204  -12.10875   -1.99681
       H   -11.12817   -9.95819    0.84982
       O   -11.41636   -9.06924    1.06360
      H1   -12.09317   -8.96160    0.37118
       H    -7.17695   -8.61617    0.27327
       O    -7.57812   -9.48495    0.44996
      H1    -6.80737  -10.00885    0.23231
       H   -11.79108   -7.28295    1.40806
       O   -11.91227   -6.35726    1.62756
      H1   -12.50434   -6.43346    2.39900
       H   -14.62065   -4.93227   -6.12955
       O   -14.27224   -5.22086   -5.21923
      H1   -13.39839   -4.85483   -5.29499
       H   -13.13236   -8.07476   -7.20067
       O   -13.31315   -8.28765   -8.13824
      H1   -12.38913   -8.22619   -8.49963
       H   -13.31217   -6.18153   -3.00647
       O   -12.76764   -6.41664   -2.26358
      H1   -12.94027   -5.69378   -1.56940
       H   -14.20532  -11.97245   -6.54104
       O   -13.81949  -11.10766   -6.31606
      H1   -14.40713  -10.79699   -5.66951
       H    -7.25365   -3.14350   -4.29354
       O    -7.64310   -3.68015   -4.98156
      H1    -8.45948   -3.16064   -5.13263
       H    -8.89156   -5.96061   -3.44934
       O    -8.13705   -6.14649   -4.05032
      H1    -8.06493   -5.20227   -4.36927
       H    -5.01123   -8.45038   -1.37856
       O    -4.54074   -9.14190   -0.97967
      H1    -4.07543   -8.65062   -0.30276

