90
frame 2 | Written by MDAnalysis XYZWriter (release 2.4.3)
       H    -2.15333  -11.89501  -16.12711
       O    -2.48223  -11.72280  -15.25668
      H1    -2.18799  -12.44771  -14.66322
       H    -2.25240  -11.68453  -18.52351
       O    -1.68269  -11.76569  -17.77979
      H1    -1.13721  -12.53241  -18.05683
       H     3.87181  -14.88016  -14.47485
       O     4.54929  -15.47378  -14.07839
      H1     5.32813  -14.86211  -14.07107
       H     2.35060  -13.45988  -12.22101
       O     3.23897  -13.16776  -12.42912
      H1     3.17023  -12.89858  -13.35586
       H     2.10208  -12.90515  -18.32890
       O     2.97914  -12.77849  -17.95513
      H1     3.51276  -13.43083  -18.40186
       H     0.37731  -14.41987  -17.09562
       O     0.68553  -14.65771  -16.17649
      H1    -0.12959  -15.06536  -15.90316
       H     3.24785   -7.29571  -18.62628
       O     4.08584   -7.68196  -18.38206
      H1     4.71481   -7.20686  -18.92147
       H     4.15988   -5.25180  -14.97722
       O     4.22463   -5.98291  -15.58532
      H1     3.46728   -5.93346  -16.17865
       H     8.90478   -9.29359  -16.81039
       O     9.03206   -9.82080  -17.66691
      H1     8.15874  -10.22898  -17.65384
       H     0.75415   -6.10826  -15.86866
       O     0.42594   -6.96987  -15.69698
      H1     0.14946   -6.87405  -14.77548
       H     3.03826  -18.44540  -17.93479
       O     3.25470  -17.81878  -18.63041
      H1     3.49130  -17.09291  -18.09264
       H     0.89812   -6.33713  -18.87359
       O     1.73813   -5.99809  -18.51756
      H1     2.04435   -5.56098  -19.32025
       H     5.68126   -8.72963  -13.02699
       O     6.55190   -9.06259  -13.23109
      H1     6.78407   -8.51872  -14.04971
       H    -1.13170   -9.65945  -16.72034
       O    -1.56710   -8.77538  -16.84730
      H1    -0.77914   -8.22406  -16.57716
       H     6.55590  -10.20815  -18.86771
       O     6.49470  -10.82861  -18.12577
      H1     5.88062  -10.46025  -17.48041
       H     0.54010  -14.24265  -19.09645
       O     0.49724  -13.30288  -18.72618
      H1     0.35155  -12.83093  -19.54755
       H     6.71349  -13.82084  -15.97398
       O     5.82482  -13.38456  -16.03452
      H1     5.98054  -12.45058  -15.73117
       H     2.11548  -13.63380  -15.51245
       O     2.94176  -13.31034  -15.08438
      H1     3.62421  -13.51230  -15.72416
       H     7.01454  -10.73977  -13.74343
       O     7.32131  -11.48717  -14.27842
      H1     7.18025  -12.14187  -13.52962
       H     6.11171   -6.55460  -16.97560
       O     6.93599   -6.92030  -17.26392
      H1     6.75623   -7.89314  -17.14132
       H     8.06892  -16.05374  -19.19377
       O     8.45816  -15.46093  -18.51941
      H1     8.00540  -15.68340  -17.67639
       H     1.85473   -8.47455  -15.97977
       O     2.32034   -9.14692  -15.45831
      H1     1.69635   -9.89006  -15.40515
       H    -1.64476   -8.18359  -18.61185
       O    -2.10220   -8.07931  -19.47268
      H1    -1.38791   -8.50688  -20.01787
       H    -0.93826  -16.01419  -18.28541
       O    -1.56597  -15.25573  -18.36624
      H1    -2.47036  -15.56447  -18.04934
       H    -0.32818  -10.36589  -12.97886
       O     0.56031  -10.76051  -12.89020
      H1     0.82089  -10.36957  -12.05449
       H     4.09879   -7.33019  -14.41813
       O     4.01978   -7.90229  -13.59250
      H1     3.36538   -8.49419  -13.97397
       H     3.28304  -10.91629  -18.95370
       O     3.02450  -10.02715  -19.25916
      H1     3.50565   -9.42430  -18.66853
       H     5.20243  -14.40217  -17.41748
       O     4.83216  -14.86249  -18.15421
      H1     5.32379  -15.72517  -18.03187
       H     1.70223   -4.74238  -17.26988
       O     1.40506   -4.16748  -16.50079
      H1     0.45412   -4.03772  -16.67007
       H     3.71144  -11.43669  -16.43822
       O     4.36582  -10.75270  -16.16564
      H1     3.77460  -10.09160  -15.86530

