90
frame 2 | Written by MDAnalysis XYZWriter (release 2.4.3)
       H    -2.84965   17.67922  -12.42379
       O    -3.68225   17.82193  -12.90925
      H1    -3.54845   17.21768  -13.67183
       H    -5.36036   19.09745   -8.08962
       O    -4.37658   19.19581   -8.33508
      H1    -4.14997   19.85037   -7.64514
       H    -4.85701   16.64795   -4.87687
       O    -4.02523   16.59832   -4.42712
      H1    -4.40434   15.98035   -3.76778
       H    -6.80176   12.16957   -7.38268
       O    -7.14600   13.01155   -7.67007
      H1    -6.98606   13.54644   -6.91304
       H    -7.20749   16.84185   -5.79256
       O    -6.71724   16.42870   -5.07474
      H1    -7.11677   15.52983   -4.96199
       H    -6.66193   17.73987   -0.97668
       O    -6.61851   18.62006   -0.60171
      H1    -5.85116   19.00802   -1.10973
       H    -7.91830   16.02846   -1.76833
       O    -7.09856   16.40050   -2.19411
      H1    -7.32161   16.71714   -3.09663
       H    -3.78077   18.29181   -4.27731
       O    -3.74988   19.28754   -4.33244
      H1    -3.83621   19.45550   -3.38255
       H    -2.22436   17.28348   -6.91300
       O    -1.50553   17.34126   -6.27878
      H1    -1.16837   18.22710   -6.56205
       H    -5.86731   15.09126   -2.48405
       O    -5.16152   14.48445   -2.84720
      H1    -4.89254   14.08231   -1.96864
       H    -7.33624   19.35295   -8.33772
       O    -7.04658   18.72820   -7.64643
      H1    -7.44805   17.90765   -7.96532
       H   -10.97360   16.90352   -6.31421
       O   -10.13688   17.28302   -5.97703
      H1   -10.15039   16.90752   -5.10013
       H    -3.73388   17.52793   -8.37731
       O    -3.31063   16.63995   -8.36490
      H1    -3.90165   16.14733   -8.92206
       H   -10.13531   13.89025  -10.33543
       O   -10.43877   13.01942   -9.98658
      H1   -10.11159   13.14067   -9.03512
       H    -9.90827   16.05391  -11.57611
       O    -9.35555   15.36679  -11.21028
      H1    -8.90234   15.81341  -10.49365
       H    -3.11026   14.80405   -7.02494
       O    -3.04738   14.55825   -6.09952
      H1    -3.18295   15.40849   -5.64615
       H   -12.53801   15.80429   -7.84104
       O   -12.23394   16.65733   -7.55331
      H1   -12.96097   16.88291   -6.89904
       H    -4.66402   14.71874  -10.70409
       O    -4.92342   14.73059   -9.78634
      H1    -4.98176   13.76424   -9.59966
       H    -8.94722   14.79429   -4.88214
       O    -8.18120   14.25202   -5.19907
      H1    -8.11031   13.43662   -4.62679
       H    -7.15787   15.32891   -8.89369
       O    -7.61955   16.12771   -9.19810
      H1    -7.15175   16.36712  -10.00909
       H   -10.52163   15.01301   -3.63135
       O   -10.07543   15.87517   -3.70033
      H1   -10.89729   16.39279   -3.53917
       H    -0.67825   16.92956  -10.32659
       O    -1.52504   17.36041  -10.61074
      H1    -2.21620   17.13084   -9.97032
       H   -11.76443   17.21678   -8.98633
       O   -11.57431   17.63675   -9.89254
      H1   -12.29342   17.16512  -10.34801
       H    -9.12981   14.05539   -6.98451
       O    -9.88745   14.46607   -7.45108
      H1    -9.94855   15.30270   -6.94252
       H    -9.57454   18.85940  -12.39580
       O   -10.14972   18.07039  -12.40596
      H1   -10.46854   18.03540  -11.45132
       H    -5.58937   11.93087   -4.87171
       O    -5.34823   12.78191   -5.23765
      H1    -5.61482   13.47547   -4.63433
       H   -12.85699   13.50554   -6.28226
       O   -12.58424   13.51083   -7.23660
      H1   -11.65923   13.93526   -7.15014
       H    -7.12154   17.44522  -13.00895
       O    -7.72151   17.21147  -13.78888
      H1    -8.63697   17.17749  -13.40137
       H    -6.17642   18.68656  -11.30313
       O    -6.31144   17.75329  -11.60382
      H1    -5.37052   17.56200  -11.91187
       H    -9.94883   18.84464   -5.81612
       O    -9.84567   19.80609   -5.55792
      H1    -8.93263   19.93373   -5.64865

