90
frame 2 | Written by MDAnalysis XYZWriter (release 2.4.3)
       H     6.20631    3.80939   17.22696
       O     6.20291    4.76453   17.38583
      H1     6.33155    4.87098   18.29958
       H    10.56587    1.78579   19.89724
       O    10.07681    2.13991   19.12297
      H1    10.80384    2.74516   18.79531
       H    14.43141   -0.62321   18.89029
       O    14.62030    0.27803   19.33976
      H1    15.41823    0.15592   19.87806
       H     7.09171    2.57699   13.73137
       O     8.00427    2.86403   13.87590
      H1     8.32975    2.69013   12.97486
       H     9.53296   -1.35612   13.57421
       O    10.11437   -1.64322   12.87372
      H1    10.74291   -0.88906   12.82933
       H     6.67530    0.98853   18.27704
       O     6.54584    0.75813   19.26288
      H1     7.29567    1.24398   19.67776
       H    13.06937    0.75996   16.51275
       O    12.39886    1.20831   16.01588
      H1    11.59667    1.37656   16.56186
       H     9.94676   -2.85152   15.71468
       O     9.06550   -2.93102   16.14071
      H1     9.23293   -3.84124   16.53255
       H    10.94138   -4.38276   14.69854
       O    11.56699   -3.88212   15.19830
      H1    12.11670   -4.54648   15.68933
       H     9.16876   -2.13092   20.17041
       O     8.98258   -2.03801   19.21276
      H1     9.65462   -2.62100   18.78334
       H     4.14119   -0.58507   18.79587
       O     3.22074   -0.84265   18.94864
      H1     3.28302   -1.66521   19.43978
       H     8.23527   -6.08460   16.89636
       O     9.03929   -5.74220   17.28410
      H1     9.01104   -6.36465   18.04787
       H     7.56354   -3.02064   19.14223
       O     6.73802   -3.53637   19.12936
      H1     7.11960   -4.34887   19.56028
       H    14.22161    6.22658   16.17974
       O    13.82158    5.35189   16.13086
      H1    13.45048    5.29470   17.03008
       H    12.36967    0.47554   14.46910
       O    12.17973    0.03917   13.62363
      H1    12.53926    0.76386   13.07955
       H    16.33669    1.25804   17.13387
       O    15.51768    1.76101   17.29300
      H1    15.23889    1.32462   18.14009
       H     6.56319    1.73940   16.01278
       O     6.87438    2.00775   16.90109
      H1     7.82835    1.99464   16.80864
       H    12.55069   -3.14038   18.35837
       O    11.75820   -3.72999   18.24740
      H1    11.86394   -4.24688   19.09384
       H    11.96459   -5.34550   17.42231
       O    11.98195   -6.24115   17.11131
      H1    11.05264   -6.32091   16.91383
       H    11.34613    5.14188   14.99462
       O    10.79664    4.85968   15.66345
      H1     9.90235    5.11467   15.41706
       H    11.56574    4.74241   18.67099
       O    11.69385    3.88535   18.16110
      H1    11.21754    4.25160   17.35121
       H    12.51587   -2.18948   15.61521
       O    13.34717   -1.70239   15.68993
      H1    13.35406   -1.26532   14.80221
       H    13.48542    3.87948   15.17798
       O    13.80916    3.03504   14.76516
      H1    13.42401    2.34255   15.45087
       H     5.38948    0.10434   14.74113
       O     5.98839    0.82013   14.46425
      H1     6.93251    0.47982   14.64175
       H     7.25996   -2.26506   14.95685
       O     6.54109   -2.62318   14.46599
      H1     6.84874   -3.49526   14.26368
       H     7.00481    4.61721   13.98083
       O     6.16830    5.03074   13.61500
      H1     6.53402    5.74327   13.05422
       H    14.15717   -1.82310   17.42173
       O    13.96444   -2.18150   18.28419
      H1    14.77697   -2.61673   18.51730
       H     9.74858    0.53595   18.03780
       O     9.68016   -0.13580   17.36509
      H1     9.35271   -0.87080   17.91520
       H     8.73259   -0.23328   15.75690
       O     8.36187   -0.06621   14.87058
      H1     8.91614    0.65120   14.60698
       H     7.52294    7.32865   16.72477
       O     8.11012    6.56554   16.73204
      H1     7.45820    5.86244   16.94948

