90
frame 2 | Written by MDAnalysis XYZWriter (release 2.4.3)
       H   -17.09720   -1.06055   11.72433
       O   -16.87401   -1.05780   12.67677
      H1   -17.33265   -0.27818   13.01248
       H   -11.91496   -2.07780   16.81943
       O   -12.43904   -1.22619   16.74347
      H1   -11.79677   -0.48906   16.84031
       H   -18.21405    3.55649   16.31306
       O   -17.65759    2.92145   16.81522
      H1   -16.74273    3.23959   16.71285
       H   -10.52635    2.54944   16.31345
       O   -10.60996    3.43910   15.90067
      H1   -10.55772    4.01067   16.65695
       H   -13.23555   -0.29618   10.31055
       O   -12.82607   -0.58708    9.50727
      H1   -13.45912   -1.24934    9.16314
       H   -11.81542   -4.10285   15.38191
       O   -11.27424   -3.96151   16.19776
      H1   -11.85246   -4.36943   16.84936
       H   -14.37699    2.97045   16.25085
       O   -14.99504    3.70891   16.08679
      H1   -14.69862    4.47525   16.60275
       H    -9.93261   -1.46602   19.71251
       O   -10.39756   -2.21940   19.34051
      H1   -11.33839   -2.12480   19.44947
       H   -14.97837    2.08240   19.29068
       O   -14.30380    1.29290   19.25712
      H1   -14.74247    0.76329   19.89567
       H   -10.88716    1.06836   13.49212
       O   -10.69788    0.12579   13.75170
      H1    -9.93282   -0.04671   13.18170
       H   -17.56046    1.62559   15.36380
       O   -17.28646    1.20435   14.54062
      H1   -16.33313    1.05139   14.59248
       H    -9.07972   -4.29673   13.81094
       O    -8.82641   -3.78719   14.60155
      H1    -9.68035   -3.64172   14.99099
       H   -18.13864    1.59641   17.95083
       O   -18.28309    0.78912   18.53443
      H1   -18.13812    0.05875   17.85905
       H   -18.44173   -5.04064   14.20353
       O   -18.42298   -4.39473   15.01123
      H1   -17.54679   -4.00415   15.06884
       H   -14.24147   -0.75893   13.98888
       O   -14.47519   -1.10360   14.85640
      H1   -13.62796   -1.00431   15.29107
       H   -14.33418   -5.56395   17.54285
       O   -13.36716   -5.52397   17.60304
      H1   -13.13024   -6.45760   17.70066
       H    -9.20427    0.80023   16.15888
       O   -10.14368    0.72802   16.39903
      H1   -10.37203    0.19727   15.60876
       H   -15.37555   -3.30188   12.86251
       O   -15.02746   -3.09199   11.98182
      H1   -14.10353   -3.38851   11.97281
       H   -12.97182   -5.96552   14.75462
       O   -13.50870   -5.22495   14.94394
      H1   -13.44568   -5.30408   15.90213
       H   -16.60616   -3.84703   18.24446
       O   -17.46736   -3.70526   17.81053
      H1   -18.06165   -4.14151   18.40423
       H   -12.04974   -2.64279   10.76381
       O   -12.13716   -3.55254   11.16087
      H1   -11.22686   -3.70964   11.25830
       H   -15.72656   -2.43486   14.79052
       O   -16.01694   -3.34076   14.90290
      H1   -15.16375   -3.80083   15.19855
       H   -15.20338   -2.36367   16.73932
       O   -14.68902   -2.28531   17.53460
      H1   -13.92098   -1.75557   17.30780
       H   -13.53919    1.20576   11.68869
       O   -13.75222    1.97597   11.13824
      H1   -14.43089    2.41440   11.58652
       H   -12.37225    2.71100   12.06977
       O   -11.44303    2.89065   12.25134
      H1   -11.45171    3.87600   12.41080
       H   -12.73703    1.91949   19.29905
       O   -12.00159    2.49281   19.07903
      H1   -11.23346    1.93630   19.34484
       H   -12.76507   -0.81914   12.44487
       O   -13.66317   -0.55123   12.24066
      H1   -14.18910   -1.33505   12.14329
       H    -9.93799   -4.18346   17.87906
       O    -9.69511   -4.84547   18.46966
      H1    -9.37361   -5.51865   17.85991
       H   -19.60079   -1.91171   16.83052
       O   -18.73313   -1.45341   16.99038
      H1   -18.08392   -2.16588   16.89235
       H   -12.90507    1.80870   17.45420
       O   -12.99285    1.82425   16.46479
      H1   -12.31255    2.50456   16.25579

