90
frame 2 | Written by MDAnalysis XYZWriter (release 2.4.3)
       H    -4.08590    8.01031    9.59521
       O    -3.55405    7.25887    9.30348
      H1    -3.03236    7.72367    8.59570
       H    -3.02495   15.56368    6.57205
       O    -2.21953   15.04297    6.33934
      H1    -1.49835   15.33641    6.97469
       H    -3.79762   11.16924   12.58933
       O    -2.98790   11.59878   12.71505
      H1    -2.54352   11.62421   11.85357
       H    -6.31045    8.50531    7.67020
       O    -6.61547    9.38305    7.29460
      H1    -7.48902    9.17925    7.00552
       H    -0.97144   11.00154    5.45928
       O    -1.28833   10.38588    4.80650
      H1    -0.54970   10.22243    4.17623
       H    -1.29338   12.24151    8.79651
       O    -1.46308   12.18593    9.75948
      H1    -0.50339   12.04429   10.13090
       H    -4.61782    4.35957    8.53052
       O    -3.73283    4.72211    8.35911
      H1    -3.87348    5.65356    8.68648
       H    -3.20138   13.56051    5.74295
       O    -3.94928   12.98066    5.43573
      H1    -4.17513   12.55354    6.27901
       H    -9.14358   12.51053    8.96332
       O    -8.70988   11.73607    8.62206
      H1    -9.42500   11.04340    8.70812
       H    -4.01214    7.90803    3.12428
       O    -4.33248    8.66632    2.62292
      H1    -3.85698    9.36957    3.08304
       H    -6.03086   14.95836    9.02889
       O    -6.11557   14.53333    8.11320
      H1    -5.70175   15.18612    7.48999
       H     0.01812   11.68437    7.60352
       O    -0.65425   12.19491    7.11589
      H1    -0.08356   12.94402    6.79740
       H    -6.09768    9.03160    5.33256
       O    -6.23262    8.50777    4.52474
      H1    -6.13989    9.20407    3.83605
       H    -2.15477    7.54900   10.45372
       O    -1.21543    7.31366   10.74285
      H1    -0.84243    7.29928    9.81843
       H    -8.01176   11.18313   10.14772
       O    -7.46291   10.90536   10.94656
      H1    -6.75233   11.59678   10.85185
       H    -6.08846   11.28759    7.75314
       O    -5.24972   11.79775    7.58521
      H1    -5.71000   12.70109    7.57499
       H    -6.13881    9.70126   10.80441
       O    -5.25114    9.31012   10.78741
      H1    -4.73492    9.97366   10.38796
       H    -4.70674   12.59664    9.53461
       O    -5.05065   12.20626   10.33911
      H1    -4.90790   12.87032   11.07084
       H    -2.21919   13.79700    9.59051
       O    -2.59869   14.60373    9.97404
      H1    -2.58745   15.32962    9.32376
       H    -5.56282   11.99696    4.85253
       O    -6.38313   11.67199    4.53872
      H1    -6.86094   11.84507    5.31404
       H    -7.01153    5.80175    7.25298
       O    -7.20923    6.56510    7.80264
      H1    -8.03215    6.27709    8.19727
       H    -5.02689   14.13224    4.28348
       O    -5.79180   14.72746    4.27783
      H1    -5.81954   15.21535    3.41675
       H     0.43658    7.23414    7.44412
       O    -0.09412    6.41108    7.74106
      H1    -0.99921    6.70739    7.52105
       H    -8.84522   12.22915    7.08070
       O    -8.58741   12.49629    6.18606
      H1    -9.36887   12.71664    5.73756
       H    -2.70623   11.04237    9.25234
       O    -3.01750   10.29737    8.67752
      H1    -3.80330   10.73989    8.41330
       H    -5.71952    7.16268   11.69292
       O    -6.12087    6.38185   12.09195
      H1    -7.08318    6.40413   11.78932
       H    -2.28022    8.95060    7.82497
       O    -2.08730    8.15715    7.23384
      H1    -1.85476    8.65925    6.47999
       H     1.81802   10.90160    4.41324
       O     1.59817   10.56236    5.28756
      H1     0.82583   11.04918    5.51898
       H    -3.47472   12.10396    4.06962
       O    -3.38046   11.34037    3.49903
      H1    -2.76165   10.87831    4.08489
       H     2.29168    9.20380    9.98137
       O     1.44717    9.71349    9.66133
      H1     1.89535   10.21070    8.90555

