90
frame 2 | Written by MDAnalysis XYZWriter (release 2.4.3)
       H    12.32715  -16.24041   16.04121
       O    11.96318  -16.12005   16.95195
      H1    11.20229  -15.64843   16.75450
       H     9.62433  -15.08234   15.83259
       O     9.11709  -15.17519   16.64150
      H1     9.47682  -14.42134   17.10445
       H     2.80430  -16.83846   15.66713
       O     2.40863  -17.71968   15.65005
      H1     2.44725  -17.91799   14.73742
       H     8.65869  -18.60848   13.63706
       O     8.29809  -18.24073   14.44837
      H1     7.37771  -18.62485   14.39842
       H    11.68862  -12.58014   18.88519
       O    11.37932  -11.73074   19.16992
      H1    12.15318  -11.49320   19.75720
       H    14.33832  -16.17356   17.01837
       O    14.94327  -16.47237   16.33840
      H1    15.29142  -15.65422   15.90730
       H    10.65498  -15.40719   11.21992
       O    11.25476  -15.59834   12.04187
      H1    12.13739  -15.45442   11.65179
       H    12.84806  -13.36792   15.32088
       O    13.73695  -13.25720   15.69218
      H1    13.56049  -13.21403   16.61312
       H    10.68331  -13.53119   14.36008
       O    11.18674  -14.20452   14.76555
      H1    11.31030  -14.78621   13.99630
       H     5.25712  -18.74357   13.52496
       O     5.55111  -18.91442   14.44278
      H1     5.71534  -18.09923   14.90765
       H     8.80859  -11.32859   15.15932
       O     8.85080  -12.27393   14.99987
      H1     8.20522  -12.56231   15.66239
       H     2.96336  -13.15576   18.04429
       O     2.55080  -13.01964   17.18300
      H1     1.59161  -12.94562   17.40565
       H     5.15047  -18.06571   17.61913
       O     5.64395  -17.56697   17.02147
      H1     5.09889  -16.78052   16.89891
       H     8.44092  -18.99232   10.98173
       O     8.14063  -18.27086   11.63889
      H1     7.21430  -18.16745   11.25615
       H     7.09185  -15.44236   11.24938
       O     6.24267  -15.01546   11.48858
      H1     6.15432  -15.24370   12.43619
       H     5.20859  -13.48316   19.53624
       O     5.10711  -12.62541   19.05462
      H1     5.45764  -12.14765   19.84016
       H     8.78221  -18.86763   17.45658
       O     8.92248  -19.54745   16.74333
      H1     8.45059  -19.06001   16.02404
       H     8.82658  -12.19703   13.37020
       O     8.67178  -12.12992   12.39701
      H1     7.72226  -11.93905   12.33622
       H     6.51313  -12.28715   18.12511
       O     7.24090  -12.14396   17.50001
      H1     8.03997  -12.46259   18.04349
       H    11.56699  -17.69075   18.34072
       O    11.94638  -18.37319   18.91062
      H1    11.54964  -18.23055   19.77223
       H     4.50336  -14.81084   16.02257
       O     3.88881  -15.41152   16.57125
      H1     3.12825  -14.83358   16.83269
       H    11.26273   -9.34369   17.79281
       O    10.41765   -9.76209   17.47859
      H1    10.63815  -10.63130   17.88560
       H     8.48262  -16.74776   11.05573
       O     8.69873  -16.01821   10.42399
      H1     8.62776  -16.52471    9.58864
       H     9.05973  -14.00627   19.46910
       O     9.31084  -13.51369   18.70799
      H1     9.93909  -12.81550   19.14158
       H     4.23770  -11.72926   14.47541
       O     5.20841  -11.50772   14.31917
      H1     5.30457  -10.62856   14.75728
       H    12.58038  -14.67189   18.01436
       O    12.78789  -13.77277   18.24267
      H1    13.45214  -13.88291   18.95386
       H     6.22403  -13.61673   16.05053
       O     5.93957  -13.97744   15.21111
      H1     5.85014  -13.08012   14.77385
       H     8.56603  -16.29555   17.85508
       O     8.27557  -17.03997   18.47148
      H1     7.35414  -16.97250   18.26248
       H     6.77518  -15.42286   14.34739
       O     6.83182  -16.15836   13.75926
      H1     7.63190  -16.60159   14.19660
       H    11.94105  -16.84637   13.27722
       O    12.23045  -17.01509   14.18446
      H1    12.03545  -17.94574   14.31766

