90
frame 2 | Written by MDAnalysis XYZWriter (release 2.4.3)
       H    -1.78773  -14.42110    2.04458
       O    -2.31677  -14.26790    1.28373
      H1    -3.14649  -13.97212    1.71736
       H     1.49984  -14.34417    6.84339
       O     0.76163  -14.00833    7.39121
      H1     0.20578  -13.69825    6.67207
       H    -3.50886  -11.99296    6.86441
       O    -3.70943  -11.72100    5.92582
      H1    -3.36899  -10.81377    5.94293
       H    -1.07059  -16.26805    8.38436
       O    -1.11858  -16.39297    7.43793
      H1    -0.40925  -15.83528    7.13758
       H     5.12318  -11.03018    7.51282
       O     4.54802  -11.46128    8.14323
      H1     3.82721  -10.83690    8.20065
       H    -0.67828  -17.92144    6.24870
       O    -0.44595  -18.91409    6.20326
      H1    -0.56986  -19.05516    5.25350
       H    -2.28970   -8.15998    5.89174
       O    -2.50364   -8.21146    4.94532
      H1    -1.96648   -7.44828    4.63271
       H     1.46927  -12.19495    2.43543
       O     0.80620  -12.76140    1.96251
      H1     0.37560  -12.16790    1.40011
       H    -0.93609  -11.32456    3.53109
       O    -1.06161  -10.67676    2.84747
      H1    -1.63135   -9.97233    3.18030
       H     4.52568   -9.94610    5.27098
       O     3.71644   -9.62351    4.82545
      H1     3.67217  -10.14561    4.03363
       H     1.80943   -8.72491    7.28750
       O     1.05267   -8.42550    6.78398
      H1     1.47292   -8.27353    5.93471
       H     3.78311  -17.92715    4.41888
       O     3.89853  -16.95978    4.27542
      H1     3.78285  -16.69568    5.20374
       H     2.12650  -10.60547    1.63437
       O     2.30219  -10.68722    2.56877
      H1     3.09238  -11.23503    2.54161
       H    -0.65750  -10.41739    7.84920
       O    -1.23963   -9.74837    7.46859
      H1    -0.55648   -9.12749    7.13239
       H    -3.25615  -13.00623    9.22178
       O    -3.88623  -12.81890    8.52860
      H1    -3.91626  -13.70131    8.08596
       H    -1.87712  -13.24252   -0.09642
       O    -1.42455  -12.91692   -0.90092
      H1    -0.48507  -13.13298   -0.70714
       H     4.80081  -15.87388    0.91055
       O     5.01251  -16.03023    1.83872
      H1     4.23446  -16.43678    2.22382
       H    -0.83986  -13.81510    4.60325
       O    -0.30323  -13.18267    5.13784
      H1     0.35148  -12.93437    4.53347
       H     5.15262  -13.07330    2.56281
       O     4.65509  -12.37003    2.05130
      H1     5.20080  -12.13033    1.31197
       H    -0.75012  -16.78230    0.03171
       O    -0.04438  -16.23057    0.32577
      H1     0.52366  -16.79260    0.83369
       H    -2.59016  -15.40670    6.84330
       O    -3.56773  -15.27633    6.87869
      H1    -3.92441  -16.17913    6.65923
       H     3.15444  -16.46488    7.49460
       O     3.19768  -15.76810    6.83149
      H1     3.96795  -15.25890    7.08453
       H    -0.52656  -11.35771   -0.50464
       O    -0.12225  -10.68550    0.07543
      H1    -0.47803  -10.81726    0.95591
       H     1.15630  -13.31467    0.25818
       O     1.00277  -13.61444   -0.66986
      H1     0.63441  -14.52407   -0.37415
       H     0.74905   -9.04326    3.80416
       O     1.14251   -8.22077    3.67567
      H1     1.31062   -8.13942    2.70226
       H    -2.88544  -17.33880    1.19393
       O    -2.85881  -16.68177    0.44761
      H1    -2.64425  -15.81759    0.90640
       H    -0.11547  -12.21525    9.50958
       O     0.32868  -11.53876    8.89822
      H1     0.82319  -12.15567    8.33877
       H    -4.25997  -13.06272    4.56791
       O    -4.05220  -13.49854    3.71246
      H1    -4.76170  -14.10559    3.57851
       H     2.39904  -17.91730    2.30500
       O     1.46237  -17.57432    2.32866
      H1     1.35804  -17.43440    3.28082
       H    -1.92812  -16.22053    4.11286
       O    -1.58703  -15.33565    3.86006
      H1    -2.39071  -14.79033    3.98954

