90
frame 2 | Written by MDAnalysis XYZWriter (release 2.4.3)
       H     8.15650    9.93685    3.07987
       O     7.87090   10.30209    3.94126
      H1     8.65425   10.69022    4.37800
       H    10.06797    9.13756    7.63561
       O    10.59448    8.50668    8.20555
      H1    10.15095    8.53588    9.07682
       H     5.09312    4.64825   10.02388
       O     4.94451    5.28265    9.24519
      H1     4.69234    4.61975    8.60121
       H     4.05553    8.32028    9.45328
       O     3.92833    8.61940   10.36993
      H1     4.01862    7.88956   10.97266
       H     6.10824    6.20924    1.76627
       O     5.98322    5.84700    2.69492
      H1     5.38114    5.07700    2.46350
       H     4.50793    9.67634    2.67644
       O     4.35157   10.28618    1.89863
      H1     3.34767   10.34045    1.93814
       H     7.06126    9.68613    9.65713
       O     6.41644   10.35934    9.72178
      H1     5.58931    9.75809    9.89230
       H     9.39857    5.72019    7.95503
       O    10.03209    4.99843    7.79326
      H1    10.73794    5.29485    8.32077
       H     7.69881    7.79909    3.77786
       O     8.25646    6.97904    3.85622
      H1     7.71248    6.30992    3.31059
       H     3.17607   12.20607    7.87222
       O     2.54492   11.49898    8.01996
      H1     2.82490   10.93766    7.24565
       H     3.66792    3.66200    3.45803
       O     4.54992    3.27261    3.29896
      H1     4.97455    3.56641    4.09093
       H     3.02137    7.30492    1.14153
       O     2.90113    6.44487    1.58617
      H1     2.97303    6.54198    2.54695
       H    10.81365    6.44533    2.37514
       O    10.68217    7.28613    2.72860
      H1     9.73552    7.26238    2.94643
       H     3.69939    6.15004    4.87704
       O     3.04001    6.56827    4.31164
      H1     2.32268    6.72230    4.98296
       H     7.43409   11.57981    6.36234
       O     6.93479   12.33811    6.10355
      H1     6.68202   12.09373    5.23285
       H     6.10415   10.59105    6.50441
       O     5.62567    9.80204    6.48931
      H1     6.26746    9.08742    6.30119
       H     4.34928    8.76221    4.94914
       O     4.43482    8.71114    3.98805
      H1     3.97071    7.88700    3.77336
       H     5.29276    8.05485    7.65636
       O     4.38210    7.79460    7.93168
      H1     4.51755    6.94589    8.39263
       H    11.78394    6.78588    6.54371
       O    12.20086    6.81691    5.65593
      H1    11.47392    6.98324    5.00065
       H     9.19112    3.56375    4.62631
       O     9.91555    3.24553    3.96337
      H1    10.63531    3.86312    4.25687
       H    10.35368    5.97325   10.87156
       O    10.48501    6.92332   10.81332
      H1     9.66682    7.31318   10.43045
       H     7.71034    7.47930    9.77870
       O     8.17710    8.22580   10.20717
      H1     8.03915    8.02356   11.15456
       H     2.60745    8.12633    7.09281
       O     1.75724    8.12788    6.54324
      H1     1.85265    8.92512    6.06197
       H     7.47057    7.13671    5.66761
       O     6.65209    7.32034    6.15643
      H1     5.98497    6.69120    5.83649
       H     4.89485    4.04685    6.28385
       O     5.40078    4.60018    5.65650
      H1     6.31019    4.41895    5.80799
       H     7.11985    6.65734    7.60607
       O     7.38244    6.33932    8.50207
      H1     6.52900    5.90159    8.72026
       H     8.79267    3.99117    6.44640
       O     8.23876    4.29259    5.75991
      H1     8.51613    5.11347    5.46610
       H     9.83942   10.94960    6.54532
       O     9.19268   10.36100    6.90125
      H1     8.71592   10.93507    7.55234
       H     7.60700    2.34377    6.73073
       O     7.58517    1.54784    6.19617
      H1     7.67348    1.82245    5.25144
       H     5.27999   11.76523    3.26587
       O     6.14536   12.20478    3.50743
      H1     6.72279   11.43582    3.75070

