90
frame 2 | Written by MDAnalysis XYZWriter (release 2.4.3)
       H    -7.23731  -16.19929   -1.92771
       O    -6.40853  -15.99972   -2.25414
      H1    -6.13550  -15.37465   -1.51818
       H    -1.78773  -14.42110    2.04458
       O    -2.31677  -14.26790    1.28373
      H1    -3.14649  -13.97212    1.71736
       H    -3.71188  -16.57368   -5.62551
       O    -3.67191  -15.63124   -5.71288
      H1    -3.08684  -15.35494   -5.00327
       H    -7.46899  -12.95996    2.49051
       O    -7.68062  -13.76257    1.98307
      H1    -6.78262  -14.12783    1.80067
       H    -2.25982  -14.09875   -2.45783
       O    -2.70191  -14.21440   -3.31519
      H1    -2.43874  -13.35378   -3.71429
       H    -1.13366  -17.05119   -3.54948
       O    -0.72510  -16.19868   -3.83867
      H1    -1.29758  -15.52273   -3.48994
       H    -9.01241  -13.57105   -1.57456
       O    -8.65295  -14.47810   -1.45781
      H1    -9.19080  -14.76991   -0.68627
       H    -4.10338  -18.23510   -1.45402
       O    -4.30303  -19.17977   -1.62837
      H1    -5.06937  -19.06108   -2.20743
       H    -4.90760  -15.19428    1.06009
       O    -5.37951  -14.96745    1.88420
      H1    -5.23291  -15.72501    2.46366
       H     0.80771  -17.98809   -2.43476
       O     1.56373  -17.50852   -2.18268
      H1     1.83148  -17.05202   -3.05970
       H    -2.25127  -19.33723    1.25051
       O    -2.68423  -18.92942    1.98408
      H1    -1.93856  -18.87459    2.67568
       H    -6.53095  -13.00939   -4.72247
       O    -6.79877  -12.13732   -5.11756
      H1    -6.68176  -11.48201   -4.39618
       H    -8.41219  -14.93942   -6.61375
       O    -9.33037  -15.08326   -6.23334
      H1    -9.59567  -14.12271   -6.14309
       H    -7.54177  -18.65186   -3.20934
       O    -6.54159  -18.70870   -3.18360
      H1    -6.31097  -18.07003   -3.89571
       H    -9.69339  -15.33421   -2.66047
       O   -10.30878  -15.63708   -3.35919
      H1    -9.79807  -15.57667   -4.21736
       H    -1.87712  -13.24252   -0.09642
       O    -1.42455  -12.91692   -0.90092
      H1    -0.48507  -13.13298   -0.70714
       H    -5.16497  -13.44334   -0.28742
       O    -4.95415  -14.28165   -0.75702
      H1    -4.51351  -13.92074   -1.58196
       H    -8.74789  -18.15743    2.38892
       O    -8.19985  -17.38197    2.60730
      H1    -8.73265  -16.94189    3.26059
       H    -0.75012  -16.78230    0.03171
       O    -0.04438  -16.23057    0.32577
      H1     0.52366  -16.79260    0.83369
       H   -10.27124  -16.49781    0.92582
       O    -9.44069  -16.05516    0.74421
      H1    -8.88848  -16.43374    1.50729
       H    -2.88544  -17.33880    1.19393
       O    -2.85881  -16.68177    0.44761
      H1    -2.64425  -15.81759    0.90640
       H    -4.20044  -18.68144   -5.70709
       O    -4.25494  -18.08555   -6.44321
      H1    -5.20872  -17.90055   -6.39926
       H    -0.95252  -15.68314   -5.93795
       O    -0.59549  -15.40572   -6.78778
      H1    -1.22506  -14.76709   -7.19445
       H    -7.32605  -17.30198   -6.91801
       O    -6.75374  -17.22423   -6.09999
      H1    -6.83943  -16.22341   -5.97368
       H    -3.79805  -17.59611   -8.65190
       O    -3.58913  -17.15064   -9.47322
      H1    -2.63272  -17.21072   -9.45814
       H    -0.51154  -18.60410   -7.36768
       O    -0.18597  -19.45426   -6.90269
      H1     0.26286  -19.83879   -7.70433
       H    -1.93758  -19.33665   -4.11998
       O    -1.13507  -19.08971   -3.61966
      H1    -0.41922  -19.27428   -4.23996
       H    -5.31772  -15.32254   -4.84737
       O    -6.27028  -14.99108   -4.73673
      H1    -6.41433  -15.28485   -3.79744
       H    -4.36081  -18.81802    2.89371
       O    -5.33136  -18.77835    2.70235
      H1    -5.30228  -18.38565    1.76402
       H    -9.47690  -18.78863   -4.03612
       O    -9.15128  -18.39680   -3.22512
      H1    -9.45327  -17.48576   -3.33206

