90
frame 2 | Written by MDAnalysis XYZWriter (release 2.4.3)
       H    15.16958    4.92098  -19.78459
       O    14.48135    5.31988  -19.23054
      H1    14.99265    5.64526  -18.42253
       H    12.40446    4.35539  -17.01553
       O    11.73525    5.03799  -16.72850
      H1    11.13104    4.38253  -16.46458
       H    10.56128    9.76822  -17.23631
       O    10.61505    9.37992  -18.11818
      H1    10.46540   10.19602  -18.67537
       H    13.19229    8.49723  -19.10781
       O    13.15522    7.88311  -19.90142
      H1    13.52791    7.06435  -19.51430
       H    15.39549    9.84863  -15.69669
       O    15.91607   10.60462  -16.04741
      H1    16.44123   10.19055  -16.76580
       H    18.44580    7.60926  -16.58846
       O    18.61115    6.69246  -16.69452
      H1    19.48038    6.69942  -17.03438
       H    13.69341    4.05080  -18.25922
       O    13.64286    3.45174  -17.51993
      H1    13.15584    2.69702  -17.92532
       H     9.45612    7.67097  -16.31169
       O     8.83615    7.48517  -17.04259
      H1     9.11269    8.17567  -17.70895
       H    14.55363    7.85057  -14.03640
       O    13.78032    8.45507  -14.15396
      H1    13.62937    8.82894  -13.23426
       H    14.61028    4.83493  -13.80268
       O    14.39732    5.78698  -14.02883
      H1    13.39594    5.72332  -13.93021
       H     8.77812    3.50249  -16.93501
       O     9.13016    4.30046  -16.52217
      H1     9.22624    4.89981  -17.30889
       H    16.87596    4.37205  -12.13747
       O    17.22278    5.25457  -12.21546
      H1    17.96733    5.34750  -12.82803
       H    11.79368    5.65007  -15.03834
       O    11.62438    5.96814  -14.14006
      H1    10.90238    5.38359  -13.90280
       H    16.79730    9.16334  -18.84713
       O    17.35887    8.77002  -18.12901
      H1    17.92352    8.22207  -18.71403
       H    15.35686    2.71300  -16.99195
       O    16.06899    2.14343  -16.53059
      H1    15.62169    1.29972  -16.35836
       H    13.71083    5.61870  -12.03898
       O    13.48220    5.78580  -11.13763
      H1    14.03454    6.58918  -10.84792
       H    17.10210    4.47817  -18.96779
       O    17.03943    4.56104  -18.00373
      H1    17.54769    5.37807  -17.84274
       H    17.83627    0.04644  -18.91382
       O    16.92226    0.23505  -18.64266
      H1    16.94136    0.99166  -18.09406
       H    16.06845    7.58659  -17.74450
       O    15.27292    7.28499  -17.33716
      H1    15.61222    6.60952  -16.74061
       H    12.97000    0.69488  -18.72936
       O    12.39580    0.86662  -17.95314
      H1    12.74922    0.13332  -17.43067
       H    12.29922    8.90933  -17.53467
       O    13.24484    9.12942  -17.57171
      H1    13.74470    8.33022  -17.34682
       H    10.74538    1.14597  -15.02290
       O    10.36557    2.03391  -15.29612
      H1    10.74021    2.49633  -14.53819
       H    15.40274   -0.19718  -15.19398
       O    14.79920   -0.17769  -15.96254
      H1    14.99886   -0.99542  -16.44426
       H    15.84289    8.51939  -12.94383
       O    16.59582    7.95838  -13.23610
      H1    16.39982    7.03576  -13.08756
       H    18.78226    1.98022  -15.66925
       O    18.31926    2.67463  -15.24053
      H1    17.50246    2.75847  -15.77624
       H    18.89402    4.25302  -14.72048
       O    19.00925    5.16813  -14.30705
      H1    18.59558    5.66127  -15.06175
       H     9.42407    4.91893  -19.53339
       O     8.65029    4.32051  -19.57657
      H1     9.05428    3.42505  -19.79399
       H    15.36965    2.81718  -14.54240
       O    15.39972    3.11437  -13.61215
      H1    14.86025    2.43797  -13.25811
       H    12.86339   10.82815  -16.93738
       O    12.65162   11.75280  -17.27670
      H1    12.83440   11.71100  -18.25702
       H    11.37749    5.88765  -18.31148
       O    10.93023    6.08291  -19.18991
      H1    11.03748    6.99225  -19.37521

