90
frame 2 | Written by MDAnalysis XYZWriter (release 2.4.3)
       H   -11.20776   -2.85722   -0.54424
       O   -11.09264   -1.98883   -0.96224
      H1   -10.30180   -1.63739   -0.53717
       H   -14.21870    1.51687    2.26000
       O   -13.89066    1.60198    3.17632
      H1   -14.35090    2.34549    3.58828
       H   -14.89708    2.43021    0.87367
       O   -14.95914    1.47290    0.68500
      H1   -15.85952    1.36276    1.04638
       H   -10.24203   -2.06130    8.39707
       O   -10.88031   -1.94968    7.59708
      H1   -10.75586   -2.76758    7.08227
       H   -10.78863    1.86012    3.20046
       O   -11.26502    1.70983    4.01177
      H1   -12.17029    1.58503    3.65458
       H   -13.84708   -4.24761    0.08578
       O   -12.94166   -4.42682   -0.23485
      H1   -12.56044   -5.04782    0.50270
       H   -12.72850   -7.02994    4.89125
       O   -12.91464   -6.17292    4.45759
      H1   -13.86379   -6.22435    4.24393
       H   -12.87989    0.62190    8.23118
       O   -12.86184    1.37369    7.65150
      H1   -12.68712    0.86932    6.84215
       H   -12.09446   -6.47993    7.49848
       O   -11.14276   -6.39751    7.32294
      H1   -11.02584   -5.44141    7.11779
       H    -9.07752   -2.68625    3.83615
       O    -8.43703   -2.20293    3.29374
      H1    -8.05751   -2.93246    2.75524
       H   -12.83925    0.15648    0.15387
       O   -12.92105   -0.65672    0.64307
      H1   -12.32220   -1.15903    0.05925
       H    -9.92096   -1.10211    1.59717
       O    -9.51874   -0.67611    0.79345
      H1    -8.57666   -0.64962    0.98648
       H   -17.64701    0.52691    1.20430
       O   -17.15019    0.78477    1.99085
      H1   -16.68005   -0.01626    2.31266
       H   -15.67388   -4.45368    0.58545
       O   -15.35367   -3.67610    0.04810
      H1   -15.40984   -2.92796    0.59693
       H   -11.75668    0.29713    5.26090
       O   -12.39271   -0.23162    5.71232
      H1   -11.80220   -0.60943    6.39935
       H   -16.23292   -5.45769    3.62715
       O   -15.64106   -4.77093    3.96169
      H1   -15.75063   -4.74816    4.91362
       H   -14.60501   -1.07495    1.14349
       O   -15.36086   -1.41644    1.69555
      H1   -14.82319   -1.89995    2.33559
       H    -9.49167    1.03219    1.28139
       O    -9.84302    1.85988    1.68204
      H1    -9.02011    2.34298    1.39054
       H    -6.84812   -5.08719    2.07205
       O    -7.70919   -4.97710    1.57562
      H1    -8.34120   -5.00814    2.30872
       H   -11.88343    1.73746   -1.50982
       O   -12.03655    2.28327   -0.72998
      H1   -11.36887    1.86636   -0.15366
       H   -13.69400   -3.54802    6.25560
       O   -13.14914   -4.26427    6.65918
      H1   -12.91488   -4.96219    6.02255
       H   -12.07656   -2.36399    2.85910
       O   -11.41388   -1.76099    2.60264
      H1   -11.92855   -1.24131    1.93158
       H   -10.45264   -4.40506    5.29373
       O   -10.02860   -4.01968    6.03092
      H1    -9.15087   -4.43405    6.01056
       H   -11.79108   -7.28295    1.40806
       O   -11.91227   -6.35726    1.62756
      H1   -12.50434   -6.43346    2.39900
       H   -14.13949   -2.74112    4.04051
       O   -13.90633   -3.02220    3.19289
      H1   -14.47720   -3.82923    2.97957
       H   -10.57952   -5.16792    2.75917
       O    -9.79798   -4.88212    3.22536
      H1    -9.51868   -5.62667    3.79787
       H   -15.65479   -1.98529    5.96759
       O   -14.71505   -2.13203    5.74550
      H1   -14.34335   -1.25556    5.72425
       H    -9.49444    0.48144    4.06996
       O    -8.63005    0.15313    4.39466
      H1    -8.62346   -0.72869    4.00415
       H   -12.53226   -2.04661   -2.41005
       O   -12.82732   -2.35436   -3.31719
      H1   -13.65387   -2.80353   -3.15522
       H   -15.54925    1.06264    4.92408
       O   -16.51217    0.95688    5.24645
      H1   -16.46240    1.16183    6.21008

