90
frame 2 | Written by MDAnalysis XYZWriter (release 2.4.3)
       H    16.27080   -0.79844   10.11508
       O    16.72000    0.05986   10.09786
      H1    17.55733   -0.10886    9.67317
       H    14.95954    0.33957   12.44352
       O    14.92096   -0.44336   13.03650
      H1    15.59947   -0.21619   13.68987
       H    16.25897    3.06392   10.34654
       O    16.39068    2.47650   11.09634
      H1    16.84096    1.73452   10.61784
       H    13.88017    0.75695    7.85534
       O    14.75584    1.12345    7.80996
      H1    15.23658    0.63197    8.49620
       H    14.87691    2.91239    8.32612
       O    15.10567    3.80778    8.64139
      H1    14.77022    4.41138    8.01916
       H    17.17572    6.32725   13.42363
       O    16.62792    6.31850   14.20371
      H1    16.65345    5.41467   14.50766
       H    15.84668    3.43804   17.48973
       O    16.18082    4.38273   17.64635
      H1    15.56953    4.85602   17.01262
       H    17.54362   -1.03967    6.24050
       O    18.19885   -0.35123    6.42835
      H1    18.61790   -0.53331    7.31993
       H    14.98003   -5.10382   12.62716
       O    15.15337   -4.75852   11.76230
      H1    15.94515   -4.25627   11.91243
       H    14.48177   -1.51224   11.54241
       O    14.16290   -1.80987   10.66955
      H1    14.31878   -2.78072   10.73760
       H    18.07640   -0.50221   11.83576
       O    18.61621    0.06339   12.43413
      H1    19.16860   -0.57701   12.83128
       H    18.57218    1.05747   16.24234
       O    18.42805    1.56304   17.04673
      H1    19.19699    1.19712   17.51068
       H    13.84387    2.68989   13.05621
       O    13.97583    2.02807   12.38079
      H1    14.77904    2.19740   11.89746
       H    12.36967    0.47554   14.46910
       O    12.17973    0.03917   13.62363
      H1    12.53926    0.76386   13.07955
       H    16.95178   -4.44592    8.17341
       O    17.85382   -4.08338    8.23068
      H1    18.31638   -4.49571    7.42222
       H    16.33669    1.25804   17.13387
       O    15.51768    1.76101   17.29300
      H1    15.23889    1.32462   18.14009
       H    17.09315    2.57561    7.37969
       O    17.14803    2.12002    6.49816
      H1    17.46387    1.25060    6.74917
       H    16.99506    1.50963   14.66855
       O    17.04609    0.55517   14.63261
      H1    17.51421    0.38593   13.82250
       H    14.95727   -2.90968   14.89857
       O    15.84853   -3.17528   14.63449
      H1    16.49015   -2.77332   15.23937
       H    12.51587   -2.18948   15.61521
       O    13.34717   -1.70239   15.68993
      H1    13.35406   -1.26532   14.80221
       H    13.48542    3.87948   15.17798
       O    13.80916    3.03504   14.76516
      H1    13.42401    2.34255   15.45087
       H    17.65666   -5.81338   10.13179
       O    18.20042   -6.26426   10.80860
      H1    18.91416   -6.67951   10.30364
       H    18.86423    5.94217   10.87542
       O    18.07240    5.68083   11.40975
      H1    18.30458    4.69641   11.57340
       H    18.00802   -2.58118   12.70979
       O    17.26289   -2.64184   12.10933
      H1    16.61539   -2.64050   12.85765
       H    18.03170    3.20905   13.66026
       O    18.80555    3.01398   13.14070
      H1    18.96269    2.10056   13.38836
       H    18.14612    4.90073    8.44964
       O    18.27445    3.90510    8.44837
      H1    19.03073    3.79898    9.04977
       H    17.45169    6.11404    9.69667
       O    17.39176    6.45071    8.83115
      H1    16.46932    6.18745    8.54723
       H    18.75684    3.26302   18.19595
       O    18.93006    3.81784   18.96003
      H1    19.12723    3.17226   19.61738
       H    18.25879   -3.67722   16.43564
       O    18.04795   -2.79861   16.78995
      H1    17.80379   -3.04033   17.72421
       H    15.36276    3.33759   14.73472
       O    16.35678    3.37589   14.80329
      H1    16.45209    3.52700   15.77908

