90
frame 2 | Written by MDAnalysis XYZWriter (release 2.4.3)
       H    10.22845   -6.44496  -18.22252
       O    11.06288   -6.91995  -18.35243
      H1    10.71693   -7.66386  -18.84786
       H     6.73186   -6.69186  -11.85588
       O     7.18754   -5.82476  -11.83938
      H1     7.03976   -5.61645  -12.79189
       H     9.85064   -2.14586  -13.72260
       O     8.92034   -2.17839  -13.36528
      H1     8.68074   -1.31842  -13.81450
       H    11.74635   -2.06513  -14.43337
       O    11.34091   -2.88068  -14.17305
      H1    10.95823   -3.25212  -14.99238
       H     8.87603   -2.62499  -11.59494
       O     9.04038   -2.61200  -10.60749
      H1     8.29492   -3.24331  -10.31237
       H     7.74349    0.84197  -14.38518
       O     8.43328    0.25159  -14.65335
      H1     9.07196    0.95159  -14.95314
       H    13.89913   -3.31851  -10.91530
       O    14.09838   -3.01200  -11.84188
      H1    13.19885   -2.97854  -12.22028
       H    12.11922   -7.92734  -17.41180
       O    12.81015   -8.24512  -16.76677
      H1    12.37199   -9.00206  -16.27812
       H    12.44903   -2.36043  -18.08262
       O    12.33106   -2.08504  -17.17500
      H1    11.38106   -1.69661  -17.19888
       H     4.15988   -5.25180  -14.97722
       O     4.22463   -5.98291  -15.58532
      H1     3.46728   -5.93346  -16.17865
       H     9.31936   -9.16468  -14.71621
       O     8.75191   -8.70899  -15.34413
      H1     8.97345   -7.76962  -15.21808
       H    11.24651   -6.05819  -15.08472
       O    10.31755   -6.12526  -14.88792
      H1    10.35046   -5.66563  -14.01023
       H     8.90478   -9.29359  -16.81039
       O     9.03206   -9.82080  -17.66691
      H1     8.15874  -10.22898  -17.65384
       H    12.64230   -3.91448  -16.40070
       O    12.63607   -4.84023  -16.13469
      H1    12.99677   -5.30320  -16.92397
       H     9.71127   -4.85865  -15.77225
       O     9.18086   -4.25437  -16.31935
      H1     8.36655   -4.15725  -15.73013
       H    10.40923   -3.75720   -9.21535
       O    10.96000   -4.35287   -9.74766
      H1    10.59587   -4.42083  -10.64878
       H     5.68126   -8.72963  -13.02699
       O     6.55190   -9.06259  -13.23109
      H1     6.78407   -8.51872  -14.04971
       H    14.70881   -5.05447  -15.74374
       O    15.52951   -4.76177  -15.34001
      H1    16.13500   -5.44795  -15.61779
       H     9.42978   -5.66428  -11.84996
       O    10.27508   -5.62241  -12.26209
      H1    10.58439   -6.53197  -12.11258
       H     3.67340   -3.04819  -13.33217
       O     3.93060   -3.82792  -13.88377
      H1     4.35672   -3.25462  -14.62157
       H     7.98190   -5.77063  -18.41431
       O     8.81565   -5.39103  -18.70569
      H1     9.02294   -4.76370  -17.96074
       H    12.60536    0.08949  -13.81662
       O    12.03043   -0.29717  -14.50522
      H1    12.72619   -0.31247  -15.25147
       H     5.97613   -1.06649  -18.85472
       O     5.44105   -1.70560  -18.45044
      H1     5.83323   -2.51474  -18.80145
       H     6.45440   -3.45280  -14.64477
       O     7.10606   -4.17140  -14.46861
      H1     7.78787   -3.71389  -13.97322
       H     6.11171   -6.55460  -16.97560
       O     6.93599   -6.92030  -17.26392
      H1     6.75623   -7.89314  -17.14132
       H    10.84339  -10.28423  -14.57880
       O    10.44674  -10.03998  -13.71160
      H1    11.06748   -9.42331  -13.27544
       H     4.02492   -1.15736  -15.79209
       O     4.70338   -1.89660  -15.85869
      H1     5.07355   -1.79824  -16.74131
       H    12.92855   -7.77910  -11.62959
       O    11.95225   -7.87876  -11.75144
      H1    11.73464   -8.79887  -11.68685
       H    13.02622   -6.84913  -18.64036
       O    13.76645   -6.24073  -18.28964
      H1    14.15784   -6.96735  -17.70829
       H     8.97687   -1.20393  -16.53761
       O     9.75588   -1.55728  -16.99288
      H1     9.59211   -2.51695  -16.77822

