90
frame 2 | Written by MDAnalysis XYZWriter (release 2.4.3)
       H    -9.47342  -19.41078   14.42893
       O   -10.03064  -19.28619   15.21776
      H1    -9.59260  -19.85402   15.84909
       H   -11.90524  -16.86380   17.63397
       O   -11.93644  -17.03718   18.58131
      H1   -12.73880  -16.58781   18.89882
       H   -13.57847  -12.46337   16.15412
       O   -13.70877  -12.12114   15.23420
      H1   -14.10207  -12.93041   14.78036
       H   -14.03748  -13.40921   18.21108
       O   -13.81126  -13.77584   17.30722
      H1   -12.88788  -13.91745   17.38753
       H   -16.73324  -12.87602   16.35699
       O   -16.54484  -12.58884   15.43250
      H1   -15.65108  -12.17851   15.49642
       H   -15.16212  -19.15273   15.37764
       O   -14.64219  -19.22478   16.16346
      H1   -13.82335  -19.50232   15.72594
       H   -14.64413  -19.97702   13.15540
       O   -15.08223  -19.14933   13.49120
      H1   -14.82970  -18.47590   12.79228
       H   -16.31546  -14.22016    9.60523
       O   -15.54089  -14.66044    9.17158
      H1   -15.86129  -15.56850    9.42782
       H   -18.37753  -14.02946   15.02004
       O   -19.19557  -14.42649   15.39744
      H1   -19.00115  -15.34027   15.42083
       H   -16.78025  -17.80095    9.75890
       O   -16.14140  -17.61426    9.06881
      H1   -15.39808  -18.25519    9.23297
       H   -10.93848  -17.87583   10.31802
       O   -11.20716  -18.62630   10.84570
      H1   -11.42785  -18.04397   11.67737
       H    -8.41096  -16.58770   14.75253
       O    -8.79255  -16.07072   15.46809
      H1    -8.73977  -15.12769   15.12724
       H   -14.93708  -17.35393   10.75114
       O   -14.75416  -17.18689   11.69490
      H1   -15.61992  -16.86208   11.94800
       H   -11.63898  -14.44407   13.74900
       O   -11.27464  -13.67682   14.20821
      H1   -12.15205  -13.28863   14.43864
       H   -13.29911  -15.55971   11.36258
       O   -13.43406  -14.69210   10.95720
      H1   -13.92208  -14.79774   10.11951
       H   -11.29330  -16.40276   13.94097
       O   -11.61626  -16.28766   13.02385
      H1   -10.91633  -15.87562   12.61103
       H   -16.97893  -16.92101   16.23039
       O   -17.51404  -16.72736   15.44032
      H1   -17.96178  -17.55101   15.16094
       H   -10.93598  -14.32870   16.58075
       O   -11.04701  -13.75432   17.32794
      H1   -10.91644  -12.79778   16.97610
       H    -8.99849  -14.62682   19.68001
       O    -8.93399  -13.82959   19.19079
      H1    -9.74946  -13.73652   18.69691
       H   -18.29984  -13.69138   16.96960
       O   -17.61950  -13.34535   17.61458
      H1   -18.23479  -12.67471   18.01105
       H   -15.18789  -16.24317   17.41435
       O   -15.69164  -17.05772   17.47668
      H1   -15.10074  -17.72060   17.10920
       H   -10.38712  -16.74778   15.81053
       O   -11.36479  -16.82350   15.69484
      H1   -11.53463  -17.80257   15.54039
       H   -13.79306  -15.00888   13.61066
       O   -14.30375  -14.14486   13.47202
      H1   -14.36428  -14.05444   12.49272
       H   -17.99468  -18.20247   11.45680
       O   -18.20358  -18.45057   10.53591
      H1   -18.77520  -19.23625   10.68058
       H    -9.65978  -13.26982   13.95878
       O    -8.68597  -13.17710   13.81901
      H1    -8.49608  -13.72416   13.02747
       H   -17.07424  -16.41880   13.56813
       O   -17.25301  -16.49705   12.62625
      H1   -18.17618  -16.34175   12.53994
       H   -10.22141  -13.66740   10.71838
       O    -9.94151  -14.41565   11.28857
      H1    -8.96859  -14.46269   11.11356
       H   -17.47403  -13.21573   11.61001
       O   -17.23273  -12.80763   12.51736
      H1   -16.71157  -13.39128   13.07249
       H    -7.07235  -17.88424   13.69285
       O    -6.67700  -17.04098   14.05362
      H1    -6.41338  -17.28800   14.94445
       H    -7.40154  -15.33368   17.24189
       O    -6.52241  -15.32947   17.46300
      H1    -6.57645  -15.70037   18.40276

