90
frame 2 | Written by MDAnalysis XYZWriter (release 2.4.3)
       H     6.81750   10.78906   -8.84875
       O     6.81346   11.66918   -9.26734
      H1     6.23582   12.14908   -8.62388
       H     8.50023   12.27202   -8.82849
       O     9.38024   12.54297   -8.57047
      H1     9.17251   13.38605   -8.08194
       H     8.93100   15.51389   -4.59778
       O     9.63199   16.16198   -4.58297
      H1     9.29214   16.92373   -4.09675
       H     8.19788   16.27496  -16.15209
       O     8.70995   16.42939  -15.38052
      H1     8.52758   17.38957  -15.20968
       H     5.25210   19.59711   -7.16570
       O     6.18694   19.76343   -7.38570
      H1     6.33319   19.13916   -8.14055
       H    11.98634   15.09794  -12.36766
       O    11.31178   14.43442  -12.04234
      H1    10.40128   14.81338  -12.16026
       H    10.83348   19.08101  -11.14293
       O    11.68813   19.29371  -10.67230
      H1    12.08427   18.39472  -10.47728
       H    11.60130   14.03738   -7.74268
       O    11.50180   14.30809   -6.77680
      H1    11.80957   15.21588   -6.71062
       H    11.51200   14.80370  -10.34332
       O    11.55188   15.16485   -9.44145
      H1    12.15236   15.95850   -9.56856
       H     4.60813   17.12061   -7.96683
       O     3.92759   17.79553   -7.66117
      H1     3.19131   17.67146   -8.28629
       H    12.52233   16.31360  -14.55833
       O    12.20689   16.45949  -13.68390
      H1    11.73622   17.30534  -13.75221
       H     8.97472   18.11965   -6.95813
       O     8.76301   18.91571   -6.45409
      H1     7.89170   19.20905   -6.81575
       H     8.84831   19.22372  -14.02630
       O     8.08666   18.76335  -14.43014
      H1     8.06631   19.25931  -15.26277
       H    13.57948   17.27411  -11.33543
       O    13.12993   17.03106  -10.45157
      H1    13.90995   16.66473   -9.89819
       H    11.08108   16.72889   -6.10073
       O    11.80915   17.10675   -6.73614
      H1    12.63521   17.13348   -6.23122
       H     5.31949   15.08648   -8.26748
       O     5.74314   15.90943   -7.92533
      H1     5.56909   15.88952   -6.96538
       H    11.62067   19.12343  -15.29761
       O    11.37098   19.19555  -14.33111
      H1    11.95264   19.95317  -14.07801
       H     9.81008   12.26340  -11.58105
       O    10.19329   11.51709  -11.05715
      H1     9.82934   11.77857  -10.21277
       H     9.21051   15.87882  -13.43309
       O     9.04511   15.38965  -12.60608
      H1     8.11857   15.23508  -12.58603
       H     5.52113   16.93907  -15.33599
       O     4.84803   17.38979  -14.83534
      H1     5.40284   18.06975  -14.37229
       H     5.96399   18.35203  -10.32946
       O     6.94598   18.58073  -10.02345
      H1     7.00227   19.54700  -10.13595
       H     7.94421   14.04345   -5.98965
       O     8.01708   13.88614   -5.05092
      H1     7.11144   13.41921   -4.79441
       H     4.71454   14.03958  -12.75176
       O     5.23364   14.01492  -11.97212
      H1     5.32741   14.97225  -11.75001
       H     8.46383   18.64830  -11.64222
       O     9.22887   19.09836  -11.98382
      H1     9.07438   19.92930  -11.51692
       H     2.64903   13.06955  -10.77859
       O     3.53462   12.84922  -10.45143
      H1     4.06113   13.33229  -11.13902
       H     4.22791   12.82869   -7.38387
       O     4.97180   12.92217   -8.04468
      H1     4.46039   12.99882   -8.92479
       H     5.24488   16.03007   -4.72717
       O     4.72809   15.74928   -5.51003
      H1     4.38512   16.58549   -5.87598
       H     3.84048   17.32579  -10.95633
       O     4.78478   17.17559  -11.24216
      H1     4.80597   17.33370  -12.19466
       H     9.74242   17.17121   -9.49805
       O     9.22713   17.57202   -8.84404
      H1     8.48010   17.75674   -9.45789
       H     7.49728   17.88548   -5.45047
       O     6.84538   17.70505   -4.70680
      H1     6.25988   18.41832   -4.77002

