90
frame 2 | Written by MDAnalysis XYZWriter (release 2.4.3)
       H   -12.54151   -8.07574   -2.00570
       O   -12.39619   -8.92326   -1.55630
      H1   -11.50842   -9.13388   -1.92930
       H   -16.60813   -6.81278    0.28066
       O   -16.14993   -6.29783    0.98032
      H1   -15.75600   -7.00584    1.49757
       H    -6.85416  -12.40557    0.89860
       O    -6.16531  -12.02844    0.31960
      H1    -5.56693  -11.61001    0.96633
       H    -8.87077   -8.91552    2.48950
       O    -8.98452   -9.35348    3.35401
      H1    -9.12089   -8.56343    3.84210
       H   -10.15865  -14.19363    1.49992
       O   -10.80465  -13.54171    1.25818
      H1   -10.57014  -12.64081    1.54031
       H    -7.22216  -10.41230    2.97752
       O    -6.69883  -11.20981    3.05791
      H1    -6.60946  -11.15287    4.03837
       H    -8.61226  -10.93476   -2.40467
       O    -8.35049  -11.84746   -2.12409
      H1    -7.67067  -11.74955   -1.48148
       H   -13.84708   -4.24761    0.08578
       O   -12.94166   -4.42682   -0.23485
      H1   -12.56044   -5.04782    0.50270
       H   -12.72850   -7.02994    4.89125
       O   -12.91464   -6.17292    4.45759
      H1   -13.86379   -6.22435    4.24393
       H    -7.46682   -6.63488   -0.88777
       O    -8.23713   -6.82637   -0.35366
      H1    -8.14387   -6.17502    0.36191
       H    -8.32106   -7.17640    5.38990
       O    -9.17800   -7.11492    4.96918
      H1    -9.83428   -7.10978    5.63184
       H   -12.71741  -10.75245   -0.85026
       O   -13.06037  -11.34788   -0.16221
      H1   -13.64763  -11.92216   -0.68837
       H   -16.02596   -8.16374    3.62760
       O   -15.26523   -7.76419    3.12717
      H1   -15.12158   -8.57799    2.59817
       H   -14.24966  -13.95850    0.42681
       O   -14.52103  -13.79276   -0.47301
      H1   -15.48673  -13.76253   -0.44641
       H    -9.48707   -8.55921   -1.35406
       O    -9.66076   -9.03728   -2.18905
      H1    -9.99553   -8.43768   -2.86594
       H    -9.61712  -10.83110    3.31129
       O    -9.80335  -11.73337    3.00252
      H1    -9.65071  -12.25433    3.77323
       H   -10.95646   -5.68279   -1.90091
       O   -10.03856   -5.68276   -1.99457
      H1    -9.69400   -6.24331   -1.25262
       H   -14.03049  -10.23438    0.89789
       O   -14.70178   -9.99046    1.58875
      H1   -15.48068  -10.28747    1.15522
       H   -11.35776  -12.36838   -1.07386
       O   -11.03033  -12.48744   -1.97779
      H1   -10.13204  -12.10875   -1.99681
       H    -6.84812   -5.08719    2.07205
       O    -7.70919   -4.97710    1.57562
      H1    -8.34120   -5.00814    2.30872
       H   -10.81014  -13.08691    5.54514
       O   -11.68942  -13.00641    5.94189
      H1   -12.24437  -12.89476    5.18677
       H   -11.12817   -9.95819    0.84982
       O   -11.41636   -9.06924    1.06360
      H1   -12.09317   -8.96160    0.37118
       H    -7.17695   -8.61617    0.27327
       O    -7.57812   -9.48495    0.44996
      H1    -6.80737  -10.00885    0.23231
       H   -11.79108   -7.28295    1.40806
       O   -11.91227   -6.35726    1.62756
      H1   -12.50434   -6.43346    2.39900
       H   -16.15022  -11.80502    4.65471
       O   -15.33551  -11.48329    5.10539
      H1   -14.68703  -11.73167    4.46440
       H   -13.31217   -6.18153   -3.00647
       O   -12.76764   -6.41664   -2.26358
      H1   -12.94027   -5.69378   -1.56940
       H   -12.43867   -9.01811    6.50634
       O   -12.87679   -8.85549    5.63034
      H1   -13.49990   -9.59024    5.53810
       H   -12.22237  -11.32711    2.88292
       O   -13.00934  -11.60641    3.35811
      H1   -13.58911  -11.29497    2.67618
       H   -10.57952   -5.16792    2.75917
       O    -9.79798   -4.88212    3.22536
      H1    -9.51868   -5.62667    3.79787
       H   -12.41441  -13.93477    1.78729
       O   -13.37573  -13.84820    2.03991
      H1   -13.28112  -12.98134    2.52888

