90
frame 2 | Written by MDAnalysis XYZWriter (release 2.4.3)
       H    10.14423   12.83195  -17.41519
       O    10.43780   13.12421  -16.55968
      H1    11.30406   12.60867  -16.50721
       H    15.16958    4.92098  -19.78459
       O    14.48135    5.31988  -19.23054
      H1    14.99265    5.64526  -18.42253
       H    15.56793   11.48860  -12.80137
       O    16.18267   12.00854  -13.38169
      H1    16.21243   11.43070  -14.21287
       H    11.37267    9.01904  -12.48446
       O    10.75876    8.32267  -12.76650
      H1    11.30984    7.55171  -13.16880
       H    17.72384   14.60816  -18.32686
       O    17.45299   15.45669  -17.94247
      H1    17.07010   15.20739  -17.10439
       H    12.60116   15.91401  -16.41617
       O    13.43688   16.14631  -15.93615
      H1    14.02724   15.46620  -16.26183
       H    10.56128    9.76822  -17.23631
       O    10.61505    9.37992  -18.11818
      H1    10.46540   10.19602  -18.67537
       H    13.19229    8.49723  -19.10781
       O    13.15522    7.88311  -19.90142
      H1    13.52791    7.06435  -19.51430
       H    15.39549    9.84863  -15.69669
       O    15.91607   10.60462  -16.04741
      H1    16.44123   10.19055  -16.76580
       H    18.44580    7.60926  -16.58846
       O    18.61115    6.69246  -16.69452
      H1    19.48038    6.69942  -17.03438
       H    16.99778   12.95113  -15.45846
       O    16.65050   13.85118  -15.69500
      H1    15.93100   13.54657  -16.32699
       H    14.55363    7.85057  -14.03640
       O    13.78032    8.45507  -14.15396
      H1    13.62937    8.82894  -13.23426
       H    14.61028    4.83493  -13.80268
       O    14.39732    5.78698  -14.02883
      H1    13.39594    5.72332  -13.93021
       H    11.79368    5.65007  -15.03834
       O    11.62438    5.96814  -14.14006
      H1    10.90238    5.38359  -13.90280
       H    16.79730    9.16334  -18.84713
       O    17.35887    8.77002  -18.12901
      H1    17.92352    8.22207  -18.71403
       H    13.78072   12.98457  -17.05274
       O    14.42668   13.74521  -17.12718
      H1    14.68215   13.69288  -18.07876
       H    15.42854   13.67692  -13.31498
       O    14.70862   14.28940  -13.19087
      H1    15.07083   15.13275  -13.29263
       H    17.10210    4.47817  -18.96779
       O    17.03943    4.56104  -18.00373
      H1    17.54769    5.37807  -17.84274
       H    10.52035    9.04028  -14.72903
       O    10.17482    9.60964  -15.48625
      H1    10.25461   10.51659  -15.19270
       H    16.06845    7.58659  -17.74450
       O    15.27292    7.28499  -17.33716
      H1    15.61222    6.60952  -16.74061
       H    12.29922    8.90933  -17.53467
       O    13.24484    9.12942  -17.57171
      H1    13.74470    8.33022  -17.34682
       H    18.07235   12.31333  -12.50920
       O    18.88026   11.90598  -12.13315
      H1    18.75483   10.97242  -12.16596
       H    19.71434    8.23956  -11.64101
       O    19.39910    9.04556  -12.10145
      H1    18.61773    8.89093  -12.68120
       H    18.78310   11.89462  -17.53639
       O    19.16952   11.46210  -16.78183
      H1    19.39486   12.28710  -16.32331
       H    15.84289    8.51939  -12.94383
       O    16.59582    7.95838  -13.23610
      H1    16.39982    7.03576  -13.08756
       H    12.32785   11.34164  -12.87510
       O    12.35036   10.51724  -12.30972
      H1    11.56473   10.72160  -11.67727
       H    18.89402    4.25302  -14.72048
       O    19.00925    5.16813  -14.30705
      H1    18.59558    5.66127  -15.06175
       H    13.86030   10.36796  -11.72888
       O    14.75687   10.13125  -11.40405
      H1    14.87947   10.91660  -10.80992
       H    12.86339   10.82815  -16.93738
       O    12.65162   11.75280  -17.27670
      H1    12.83440   11.71100  -18.25702
       H    13.11289   12.93155  -14.28560
       O    12.20133   12.81060  -14.55619
      H1    11.79192   13.51341  -13.99197

