90
frame 2 | Written by MDAnalysis XYZWriter (release 2.4.3)
       H   -17.13080   -0.95882    5.59946
       O   -17.39887   -1.85535    5.61315
      H1   -18.05784   -1.87401    6.32344
       H   -17.09720   -1.06055   11.72433
       O   -16.87401   -1.05780   12.67677
      H1   -17.33265   -0.27818   13.01248
       H   -19.29023   -1.58338   14.98871
       O   -19.57936   -2.09665   14.22074
      H1   -19.17093   -2.93962   14.28471
       H   -13.23555   -0.29618   10.31055
       O   -12.82607   -0.58708    9.50727
      H1   -13.45912   -1.24934    9.16314
       H   -17.56046    1.62559   15.36380
       O   -17.28646    1.20435   14.54062
      H1   -16.33313    1.05139   14.59248
       H   -18.68179   -3.94129    5.94930
       O   -18.96375   -4.41084    6.78023
      H1   -18.75539   -3.79796    7.46895
       H   -19.71188   -5.59149   12.64258
       O   -18.76773   -5.70688   12.71913
      H1   -18.59929   -6.63802   12.57514
       H   -12.60656   -5.64813   10.23748
       O   -13.19871   -6.33378   10.08896
      H1   -13.17187   -6.54177    9.13334
       H   -18.44173   -5.04064   14.20353
       O   -18.42298   -4.39473   15.01123
      H1   -17.54679   -4.00415   15.06884
       H   -14.24147   -0.75893   13.98888
       O   -14.47519   -1.10360   14.85640
      H1   -13.62796   -1.00431   15.29107
       H   -15.63149   -6.51376   12.23579
       O   -15.34768   -6.88784   13.07472
      H1   -15.03305   -6.04249   13.47749
       H   -13.78963   -7.71257    6.82442
       O   -13.85858   -6.97690    7.47209
      H1   -14.40069   -6.28501    7.10705
       H   -15.37555   -3.30188   12.86251
       O   -15.02746   -3.09199   11.98182
      H1   -14.10353   -3.38851   11.97281
       H   -12.97182   -5.96552   14.75462
       O   -13.50870   -5.22495   14.94394
      H1   -13.44568   -5.30408   15.90213
       H   -13.69400   -3.54802    6.25560
       O   -13.14914   -4.26427    6.65918
      H1   -12.91488   -4.96219    6.02255
       H   -16.68713   -3.50426   11.03811
       O   -17.38672   -4.04336   10.71195
      H1   -17.71249   -4.53384   11.48779
       H   -16.51128    0.27371    9.41056
       O   -16.85258   -0.56230    9.62495
      H1   -16.28238   -1.23625    9.21880
       H   -12.04974   -2.64279   10.76381
       O   -12.13716   -3.55254   11.16087
      H1   -11.22686   -3.70964   11.25830
       H   -15.72656   -2.43486   14.79052
       O   -16.01694   -3.34076   14.90290
      H1   -15.16375   -3.80083   15.19855
       H   -18.99767    0.28806    9.36495
       O   -19.75888   -0.11352    8.91304
      H1   -19.53228   -1.04571    9.11636
       H   -15.02421   -3.40381    8.75760
       O   -15.01808   -2.46321    8.62257
      H1   -14.91841   -2.44360    7.66464
       H   -15.20338   -2.36367   16.73932
       O   -14.68902   -2.28531   17.53460
      H1   -13.92098   -1.75557   17.30780
       H   -13.53919    1.20576   11.68869
       O   -13.75222    1.97597   11.13824
      H1   -14.43089    2.41440   11.58652
       H   -19.85529   -3.23930    8.85092
       O   -19.04999   -2.75911    8.94258
      H1   -18.65493   -3.19359    9.70036
       H   -16.14529   -5.58990   10.13591
       O   -15.93225   -6.56488   10.40031
      H1   -14.96111   -6.56480   10.15059
       H   -15.65479   -1.98529    5.96759
       O   -14.71505   -2.13203    5.74550
      H1   -14.34335   -1.25556    5.72425
       H   -16.46727   -5.98894    7.07132
       O   -16.23102   -5.14356    6.69020
      H1   -17.12975   -4.69444    6.69065
       H   -12.76507   -0.81914   12.44487
       O   -13.66317   -0.55123   12.24066
      H1   -14.18910   -1.33505   12.14329
       H   -16.25383   -7.36287   15.69819
       O   -16.84295   -7.82357   15.07712
      H1   -16.46633   -7.49015   14.25820
       H   -17.59081   -7.33458    9.93091
       O   -18.54811   -7.62488    9.84246
      H1   -18.69623   -7.47204    8.88289

