90
frame 2 | Written by MDAnalysis XYZWriter (release 2.4.3)
       H    11.48255  -12.31384   -3.82256
       O    10.67109  -12.72383   -4.14293
      H1    10.57442  -12.12647   -4.95272
       H    16.38412  -16.14068   -1.78646
       O    16.92139  -15.60160   -2.37726
      H1    17.77931  -15.89448   -1.96976
       H    11.36607  -14.54991   -3.00508
       O    11.05447  -15.26174   -2.42358
      H1    11.42032  -15.98351   -2.93432
       H    11.56978  -13.34763    1.81681
       O    12.52272  -13.04954    1.93224
      H1    12.34016  -12.33785    2.60093
       H    19.05927  -12.25637    0.16489
       O    19.27169  -12.86046   -0.57169
      H1    18.80681  -12.32354   -1.25188
       H    11.92065  -11.64173    0.81077
       O    12.23255  -10.82513    0.36880
      H1    11.47850  -10.59565   -0.13458
       H    17.25296  -15.78422   -7.01698
       O    18.11545  -16.15415   -6.73726
      H1    17.89366  -17.05185   -6.42923
       H    13.67578   -8.61447   -4.51623
       O    13.92242   -9.04935   -3.68619
      H1    13.29252   -9.76881   -3.51172
       H    13.01211   -7.96851   -0.87296
       O    12.70033   -7.54771   -1.72005
      H1    13.23220   -8.00906   -2.43693
       H    16.18856   -9.26091    1.80133
       O    16.23136   -8.38859    1.29485
      H1    16.74312   -8.56526    0.45611
       H    16.36269  -15.58171    0.32245
       O    16.57845  -15.17568    1.18938
      H1    16.30273  -15.87150    1.81349
       H    19.73249   -9.62134   -5.70116
       O    19.47058   -8.99535   -5.03898
      H1    18.50289   -9.10271   -4.97156
       H    17.23627  -12.81485   -7.64500
       O    17.87289  -12.07811   -7.87656
      H1    18.21803  -12.45487   -8.68498
       H    16.07665  -13.65929   -2.62516
       O    15.59555  -12.82603   -2.75790
      H1    16.25886  -12.33483   -3.26824
       H    14.48119   -8.39806    0.92562
       O    13.52938   -8.27059    0.82065
      H1    13.17264   -9.21661    0.93629
       H    13.62390  -11.96790   -2.67796
       O    12.69790  -11.57780   -2.68497
      H1    12.68140  -11.37378   -1.76347
       H    16.75199   -9.67749   -6.83985
       O    16.89447   -9.15137   -6.01763
      H1    16.33135   -8.40666   -6.08954
       H    14.72619  -17.48963   -0.48358
       O    14.81567  -16.82977   -1.18653
      H1    14.31835  -16.08215   -0.75358
       H    15.78176  -12.02417   -1.24982
       O    16.00149  -11.33533   -0.58432
      H1    16.20382  -11.81689    0.18042
       H    18.15371   -9.46580   -1.17242
       O    18.02493   -8.57726   -0.72929
      H1    17.89659   -8.07845   -1.58183
       H    14.41298  -15.49197   -4.96482
       O    14.22805  -14.64167   -5.45068
      H1    14.23655  -14.05045   -4.66958
       H    16.36794   -9.91062   -4.57066
       O    16.24969  -10.36488   -3.69503
      H1    15.35991  -10.05309   -3.40461
       H    15.70642  -14.42962   -6.64580
       O    16.27270  -14.19034   -7.44705
      H1    15.65660  -14.26627   -8.17036
       H    13.60512  -12.68876   -8.20138
       O    13.82304  -13.65108   -8.10885
      H1    13.73042  -13.84104   -7.15003
       H    13.27513  -13.98031    0.09857
       O    13.32198  -14.88105   -0.23814
      H1    12.60369  -14.77050   -0.91208
       H    18.93317  -10.30702   -3.11833
       O    18.49833  -10.62361   -2.28106
      H1    17.55835  -10.60871   -2.58391
       H    13.83712  -10.53222    2.96468
       O    14.84150  -10.51102    2.89380
      H1    15.13581  -11.33236    2.46125
       H    19.27929  -16.52904   -0.54113
       O    18.90994  -17.19758   -1.13958
      H1    19.68559  -17.49388   -1.58865
       H    16.41678  -16.39660   -3.86708
       O    15.87505  -16.84190   -4.49435
      H1    15.42572  -17.49883   -3.99351
       H    16.80332  -13.06395    2.30644
       O    16.95510  -12.34761    1.65620
      H1    17.74588  -11.82360    2.00714

