90
frame 2 | Written by MDAnalysis XYZWriter (release 2.4.3)
       H    12.40446    4.35539  -17.01553
       O    11.73525    5.03799  -16.72850
      H1    11.13104    4.38253  -16.46458
       H    15.56793   11.48860  -12.80137
       O    16.18267   12.00854  -13.38169
      H1    16.21243   11.43070  -14.21287
       H    14.73788    5.93024   -8.72411
       O    15.03568    6.87291   -8.77333
      H1    15.97896    6.73179   -8.93652
       H    11.37267    9.01904  -12.48446
       O    10.75876    8.32267  -12.76650
      H1    11.30984    7.55171  -13.16880
       H    18.15432    7.76341   -8.46201
       O    17.98091    7.18174   -9.22246
      H1    17.82916    7.75984   -9.99310
       H    10.56128    9.76822  -17.23631
       O    10.61505    9.37992  -18.11818
      H1    10.46540   10.19602  -18.67537
       H    15.39549    9.84863  -15.69669
       O    15.91607   10.60462  -16.04741
      H1    16.44123   10.19055  -16.76580
       H     9.45612    7.67097  -16.31169
       O     8.83615    7.48517  -17.04259
      H1     9.11269    8.17567  -17.70895
       H    14.55363    7.85057  -14.03640
       O    13.78032    8.45507  -14.15396
      H1    13.62937    8.82894  -13.23426
       H    14.61028    4.83493  -13.80268
       O    14.39732    5.78698  -14.02883
      H1    13.39594    5.72332  -13.93021
       H    16.87596    4.37205  -12.13747
       O    17.22278    5.25457  -12.21546
      H1    17.96733    5.34750  -12.82803
       H    11.79368    5.65007  -15.03834
       O    11.62438    5.96814  -14.14006
      H1    10.90238    5.38359  -13.90280
       H    11.67960    8.17027   -7.23606
       O    11.42380    8.91550   -7.82705
      H1    11.16043    8.41923   -8.61490
       H     7.85577    7.09718  -12.23150
       O     8.56105    6.44367  -12.55583
      H1     9.24598    7.13758  -12.58815
       H    15.42854   13.67692  -13.31498
       O    14.70862   14.28940  -13.19087
      H1    15.07083   15.13275  -13.29263
       H    13.71083    5.61870  -12.03898
       O    13.48220    5.78580  -11.13763
      H1    14.03454    6.58918  -10.84792
       H    10.52035    9.04028  -14.72903
       O    10.17482    9.60964  -15.48625
      H1    10.25461   10.51659  -15.19270
       H     9.05055    7.07997   -9.14887
       O     9.88746    7.30756   -9.65561
      H1     9.52379    8.11314  -10.12276
       H    16.06845    7.58659  -17.74450
       O    15.27292    7.28499  -17.33716
      H1    15.61222    6.60952  -16.74061
       H    12.29922    8.90933  -17.53467
       O    13.24484    9.12942  -17.57171
      H1    13.74470    8.33022  -17.34682
       H    19.71434    8.23956  -11.64101
       O    19.39910    9.04556  -12.10145
      H1    18.61773    8.89093  -12.68120
       H    13.40465   13.50776   -9.85154
       O    13.37640   12.57817  -10.09636
      H1    12.52539   12.52747  -10.52280
       H     9.81008   12.26340  -11.58105
       O    10.19329   11.51709  -11.05715
      H1     9.82934   11.77857  -10.21277
       H    15.84289    8.51939  -12.94383
       O    16.59582    7.95838  -13.23610
      H1    16.39982    7.03576  -13.08756
       H    10.33074    4.83135   -9.68388
       O    11.18580    4.43140   -9.72381
      H1    11.53235    5.04312  -10.37422
       H    12.32785   11.34164  -12.87510
       O    12.35036   10.51724  -12.30972
      H1    11.56473   10.72160  -11.67727
       H    13.89091   11.29120   -8.22617
       O    13.81394   10.59514   -7.52542
      H1    13.19911    9.94213   -7.88372
       H    13.86030   10.36796  -11.72888
       O    14.75687   10.13125  -11.40405
      H1    14.87947   10.91660  -10.80992
       H    12.86339   10.82815  -16.93738
       O    12.65162   11.75280  -17.27670
      H1    12.83440   11.71100  -18.25702
       H    13.11289   12.93155  -14.28560
       O    12.20133   12.81060  -14.55619
      H1    11.79192   13.51341  -13.99197

