90
frame 2 | Written by MDAnalysis XYZWriter (release 2.4.3)
       H    -2.44007    4.51202    4.36316
       O    -2.70177    4.63824    3.44592
      H1    -3.48145    5.21825    3.54357
       H     0.41918    5.31336    6.28116
       O     0.80824    4.50614    5.92466
      H1     0.81485    4.62221    4.98567
       H    -4.08590    8.01031    9.59521
       O    -3.55405    7.25887    9.30348
      H1    -3.03236    7.72367    8.59570
       H    -3.79762   11.16924   12.58933
       O    -2.98790   11.59878   12.71505
      H1    -2.54352   11.62421   11.85357
       H    -1.35233    3.90395   10.01381
       O    -1.16003    3.54094    9.13618
      H1    -1.82790    4.07697    8.68949
       H    -6.31045    8.50531    7.67020
       O    -6.61547    9.38305    7.29460
      H1    -7.48902    9.17925    7.00552
       H    -0.97144   11.00154    5.45928
       O    -1.28833   10.38588    4.80650
      H1    -0.54970   10.22243    4.17623
       H    -1.29338   12.24151    8.79651
       O    -1.46308   12.18593    9.75948
      H1    -0.50339   12.04429   10.13090
       H    -4.61782    4.35957    8.53052
       O    -3.73283    4.72211    8.35911
      H1    -3.87348    5.65356    8.68648
       H    -3.20138   13.56051    5.74295
       O    -3.94928   12.98066    5.43573
      H1    -4.17513   12.55354    6.27901
       H    -5.45238    6.81382    4.23232
       O    -5.06420    5.91736    4.04261
      H1    -5.24213    5.73739    3.08998
       H     0.01812   11.68437    7.60352
       O    -0.65425   12.19491    7.11589
      H1    -0.08356   12.94402    6.79740
       H    -6.09768    9.03160    5.33256
       O    -6.23262    8.50777    4.52474
      H1    -6.13989    9.20407    3.83605
       H    -2.15477    7.54900   10.45372
       O    -1.21543    7.31366   10.74285
      H1    -0.84243    7.29928    9.81843
       H    -6.08846   11.28759    7.75314
       O    -5.24972   11.79775    7.58521
      H1    -5.71000   12.70109    7.57499
       H    -6.13881    9.70126   10.80441
       O    -5.25114    9.31012   10.78741
      H1    -4.73492    9.97366   10.38796
       H    -4.70674   12.59664    9.53461
       O    -5.05065   12.20626   10.33911
      H1    -4.90790   12.87032   11.07084
       H    -1.96085    3.74474    6.34314
       O    -1.55893    3.33790    5.55110
      H1    -0.65333    3.67199    5.67965
       H    -7.01153    5.80175    7.25298
       O    -7.20923    6.56510    7.80264
      H1    -8.03215    6.27709    8.19727
       H    -3.41584    5.62713   14.04999
       O    -3.62639    5.01882   13.30441
      H1    -4.49310    5.34944   13.06138
       H     0.43658    7.23414    7.44412
       O    -0.09412    6.41108    7.74106
      H1    -0.99921    6.70739    7.52105
       H    -2.70623   11.04237    9.25234
       O    -3.01750   10.29737    8.67752
      H1    -3.80330   10.73989    8.41330
       H    -2.27681    5.01342   12.16453
       O    -1.64875    4.80910   11.41418
      H1    -1.38979    5.68616   11.15571
       H    -5.71952    7.16268   11.69292
       O    -6.12087    6.38185   12.09195
      H1    -7.08318    6.40413   11.78932
       H    -2.28022    8.95060    7.82497
       O    -2.08730    8.15715    7.23384
      H1    -1.85476    8.65925    6.47999
       H     0.64182    7.52057   11.51359
       O     1.36203    7.65052   12.19270
      H1     0.97844    7.37786   12.99096
       H     2.60745    8.12633    7.09281
       O     1.75724    8.12788    6.54324
      H1     1.85265    8.92512    6.06197
       H    -2.61553    2.37229    9.85262
       O    -3.31745    1.73148   10.00810
      H1    -4.12969    2.30328   10.11624
       H    -3.47472   12.10396    4.06962
       O    -3.38046   11.34037    3.49903
      H1    -2.76165   10.87831    4.08489
       H     2.29168    9.20380    9.98137
       O     1.44717    9.71349    9.66133
      H1     1.89535   10.21070    8.90555

