90
frame 2 | Written by MDAnalysis XYZWriter (release 2.4.3)
       H     3.41789  -10.85136   16.92293
       O     3.65820   -9.96820   17.18678
      H1     3.38912   -9.98880   18.09333
       H    -0.92929   -8.66485   16.09473
       O    -1.15217   -7.72312   16.36324
      H1    -0.85212   -7.21003   15.57032
       H     2.56687   -1.41565   14.65489
       O     3.19369   -0.64044   14.68984
      H1     2.67653   -0.24940   15.41151
       H     9.94676   -2.85152   15.71468
       O     9.06550   -2.93102   16.14071
      H1     9.23293   -3.84124   16.53255
       H     7.20593   -8.85280   18.61627
       O     6.30596   -8.96048   18.92483
      H1     5.87015   -9.62797   18.39519
       H     1.63747   -1.31488   17.51343
       O     1.24939   -2.13089   17.11640
      H1     1.68823   -2.80350   17.63779
       H     5.33460   -5.22982   18.74123
       O     4.99846   -5.39257   17.87425
      H1     5.16612   -4.60323   17.31426
       H     0.83564   -6.97549   16.94957
       O     1.76593   -6.87719   17.03511
      H1     2.02142   -7.66538   16.43313
       H     4.14119   -0.58507   18.79587
       O     3.22074   -0.84265   18.94864
      H1     3.28302   -1.66521   19.43978
       H     6.14772   -6.38723   16.64989
       O     6.89206   -6.41873   15.97912
      H1     7.03288   -7.38838   16.07262
       H     8.23527   -6.08460   16.89636
       O     9.03929   -5.74220   17.28410
      H1     9.01104   -6.36465   18.04787
       H     7.56354   -3.02064   19.14223
       O     6.73802   -3.53637   19.12936
      H1     7.11960   -4.34887   19.56028
       H    -2.72956   -1.66745   17.13051
       O    -3.10992   -2.58613   17.17208
      H1    -2.33046   -3.13217   16.84960
       H     0.14142   -3.06950   13.94128
       O    -0.81487   -3.33139   14.16810
      H1    -1.16481   -3.55128   13.27326
       H     2.65432   -9.40795   15.85635
       O     2.08003   -8.92887   15.27242
      H1     2.71182   -8.58715   14.62821
       H     5.56480   -8.28153   15.20001
       O     5.76977   -9.06611   15.72738
      H1     5.05702   -9.07476   16.34693
       H     3.33515   -7.30600   13.26485
       O     4.00683   -7.96558   13.41835
      H1     3.74445   -8.64337   12.80779
       H     1.04526   -9.49380   19.42421
       O     0.51003   -9.03923   18.75631
      H1     1.00876   -8.29500   18.48304
       H     1.79687   -3.28042   12.40074
       O     1.66810   -2.66596   13.18680
      H1     1.74625   -1.84694   12.63025
       H    -0.88129   -0.46008   13.80537
       O    -0.12701   -0.12788   14.23649
      H1    -0.15632   -0.58793   15.06360
       H    -0.29822   -4.81663   18.20381
       O    -0.19544   -5.70413   18.64376
      H1    -0.91780   -6.16906   18.25608
       H    -2.46494   -3.20738   19.87672
       O    -1.60693   -2.70269   19.60685
      H1    -1.81806   -2.51488   18.69099
       H    -0.94259   -3.61649   15.81504
       O    -0.73381   -3.83522   16.72558
      H1    -0.19399   -3.03879   16.93455
       H     0.51459   -6.04214   14.60655
       O    -0.43021   -5.97348   14.44749
      H1    -0.64213   -5.02400   14.53158
       H     6.89592   -5.73964   14.29363
       O     6.72771   -5.18650   13.50500
      H1     6.70535   -5.88354   12.80382
       H     2.65400   -5.90169   15.45457
       O     2.36730   -5.74828   14.52754
      H1     2.69413   -4.85928   14.30009
       H     7.25996   -2.26506   14.95685
       O     6.54109   -2.62318   14.46599
      H1     6.84874   -3.49526   14.26368
       H     1.74499   -4.80552   17.96030
       O     2.48260   -4.41720   18.42017
      H1     3.27578   -4.79085   17.91619
       H     3.79206   -2.75580   16.06614
       O     4.02379   -3.57495   15.63753
      H1     4.77153   -3.35379   15.04101
       H     4.38780   -5.24905   11.02845
       O     5.11643   -5.64447   11.49338
      H1     4.90690   -5.25384   12.35639

