90
frame 2 | Written by MDAnalysis XYZWriter (release 2.4.3)
       H    -2.84965   17.67922  -12.42379
       O    -3.68225   17.82193  -12.90925
      H1    -3.54845   17.21768  -13.67183
       H    -4.01350   17.28222  -19.40662
       O    -5.01850   17.18673  -19.34507
      H1    -5.16916   17.66842  -18.49041
       H    -8.63123   19.11706  -18.95443
       O    -9.00477   19.79991  -19.47897
      H1    -9.87101   19.42021  -19.57928
       H    -9.18423   13.20230  -14.43301
       O    -9.70429   12.57722  -14.97972
      H1   -10.52542   12.37615  -14.43026
       H    -3.46877   18.26532  -17.04022
       O    -4.36250   18.13310  -16.60646
      H1    -4.58969   19.06433  -16.45666
       H    -1.63956   18.36442  -18.36153
       O    -2.21461   19.06622  -18.10610
      H1    -1.84028   19.27819  -17.22048
       H    -3.59050   15.47927  -12.87611
       O    -3.84779   14.65810  -12.49726
      H1    -4.30184   14.33432  -13.29686
       H    -4.92641   10.66994  -17.35293
       O    -5.35509   11.55338  -17.05102
      H1    -6.28057   11.22011  -16.87369
       H   -12.95813   18.16270  -15.64110
       O   -13.12130   18.19768  -16.58363
      H1   -12.39079   17.66511  -16.89376
       H   -12.60084   19.48730  -13.73707
       O   -12.30342   18.64162  -14.11226
      H1   -11.39716   18.69935  -13.76589
       H    -8.05663    9.92289  -16.61258
       O    -8.01290   10.82947  -16.92632
      H1    -8.33093   11.28997  -16.16018
       H    -5.44065   11.96480  -18.75553
       O    -5.71722   12.67363  -19.43822
      H1    -6.65334   12.41212  -19.61407
       H    -9.90827   16.05391  -11.57611
       O    -9.35555   15.36679  -11.21028
      H1    -8.90234   15.81341  -10.49365
       H   -13.41283   14.14012  -19.61393
       O   -12.66864   14.55612  -19.18986
      H1   -13.24129   15.00055  -18.57249
       H    -8.44820   19.49018  -15.61916
       O    -7.49828   19.25694  -15.73866
      H1    -7.41546   18.71127  -14.99175
       H    -8.20372   14.36066  -12.87063
       O    -7.78650   14.30637  -13.75204
      H1    -7.67268   15.27820  -13.86757
       H   -11.10682   15.75809  -18.17646
       O   -11.03037   16.69993  -17.85910
      H1   -10.08200   16.94340  -17.91401
       H    -8.21301   17.95450  -16.94934
       O    -8.39276   17.53054  -17.78099
      H1    -8.27327   16.60463  -17.49709
       H    -3.90811   12.75282  -14.54363
       O    -4.11160   13.52737  -15.06531
      H1    -4.52214   13.14941  -15.92017
       H   -11.26381   16.25021  -14.32166
       O   -11.42076   15.45460  -13.74287
      H1   -12.17222   15.70558  -13.18313
       H   -12.72434   12.30710  -14.13229
       O   -11.94746   12.40877  -13.56182
      H1   -11.86148   13.37263  -13.64680
       H    -8.14515   14.15245  -16.69881
       O    -8.20839   14.71968  -17.48225
      H1    -7.25445   14.80574  -17.78879
       H    -8.12801   11.44619  -18.66119
       O    -8.13282   11.57081  -19.63731
      H1    -8.74249   12.24611  -19.78702
       H    -9.57454   18.85940  -12.39580
       O   -10.14972   18.07039  -12.40596
      H1   -10.46854   18.03540  -11.45132
       H   -10.54394   13.06272  -16.46883
       O   -11.13915   12.80305  -17.15784
      H1   -10.65690   13.13502  -17.91900
       H    -7.12154   17.44522  -13.00895
       O    -7.72151   17.21147  -13.78888
      H1    -8.63697   17.17749  -13.40137
       H    -3.73990   15.38785  -15.14170
       O    -3.25149   16.18117  -14.89582
      H1    -3.76506   16.78576  -15.43913
       H    -2.67447   14.68503  -17.45216
       O    -1.73524   14.83481  -17.62425
      H1    -1.26263   14.06787  -17.18115
       H    -5.65986   15.73410  -18.33134
       O    -5.41369   14.94400  -17.76536
      H1    -5.67209   14.18360  -18.25060
       H    -6.17642   18.68656  -11.30313
       O    -6.31144   17.75329  -11.60382
      H1    -5.37052   17.56200  -11.91187

