90
frame 2 | Written by MDAnalysis XYZWriter (release 2.4.3)
       H    -1.22947    1.32171   14.13006
       O    -1.54843    2.16297   14.45288
      H1    -1.03526    2.81933   13.99045
       H    -1.94783    0.22231   16.50224
       O    -1.36234   -0.43781   16.90301
      H1    -0.97130   -0.00935   17.68721
       H    -6.47170   -5.33673   16.89620
       O    -6.31702   -5.02402   16.02767
      H1    -7.24053   -4.77256   15.90736
       H    -5.26698   -3.05446   12.16567
       O    -5.87787   -2.32932   12.47406
      H1    -5.59587   -1.47086   12.05589
       H    -3.87634    2.95465   13.20296
       O    -4.56621    2.27858   13.55415
      H1    -4.03937    1.50187   13.74568
       H    -8.01863   -4.47257   18.92536
       O    -7.08207   -4.69991   18.87070
      H1    -6.83903   -4.89390   19.76772
       H    -8.91500    2.98940   14.94754
       O    -8.26808    2.81886   14.24723
      H1    -7.78698    2.08699   14.71599
       H    -2.72956   -1.66745   17.13051
       O    -3.10992   -2.58613   17.17208
      H1    -2.33046   -3.13217   16.84960
       H   -10.88716    1.06836   13.49212
       O   -10.69788    0.12579   13.75170
      H1    -9.93282   -0.04671   13.18170
       H    -9.07972   -4.29673   13.81094
       O    -8.82641   -3.78719   14.60155
      H1    -9.68035   -3.64172   14.99099
       H    -6.26572   -3.32944   17.46429
       O    -6.07391   -2.34474   17.59863
      H1    -5.12629   -2.26257   17.63275
       H     0.14142   -3.06950   13.94128
       O    -0.81487   -3.33139   14.16810
      H1    -1.16481   -3.55128   13.27326
       H    -6.30580   -5.56994   13.89196
       O    -6.19972   -5.29827   12.96963
      H1    -6.96312   -5.79578   12.64081
       H    -5.55149   -1.77681   14.17419
       O    -5.39130   -1.26725   15.04482
      H1    -5.74542   -1.93373   15.63027
       H    -9.20427    0.80023   16.15888
       O   -10.14368    0.72802   16.39903
      H1   -10.37203    0.19727   15.60876
       H    -0.88129   -0.46008   13.80537
       O    -0.12701   -0.12788   14.23649
      H1    -0.15632   -0.58793   15.06360
       H    -5.33478    4.08577   14.39680
       O    -5.85364    4.38159   15.15742
      H1    -6.64058    3.88819   15.06115
       H    -2.46494   -3.20738   19.87672
       O    -1.60693   -2.70269   19.60685
      H1    -1.81806   -2.51488   18.69099
       H    -7.80760   -2.91170    9.63843
       O    -7.80487   -3.63523   10.26752
      H1    -7.66471   -3.20812   11.10649
       H    -5.73963    1.03055   11.99125
       O    -5.74067    0.15468   11.59227
      H1    -6.20884    0.45379   10.77324
       H    -0.94259   -3.61649   15.81504
       O    -0.73381   -3.83522   16.72558
      H1    -0.19399   -3.03879   16.93455
       H    -3.85069    0.17796   15.56510
       O    -3.65160    0.92482   16.16657
      H1    -4.01977    1.64281   15.66503
       H    -9.03134   -0.36302   18.46356
       O    -8.53154   -0.01402   19.27434
      H1    -7.90361   -0.78679   19.37662
       H    -8.18387   -1.71947   13.19629
       O    -8.44387   -0.97820   12.62738
      H1    -7.72911   -0.32671   12.56534
       H    -7.56423    1.17798   18.68916
       O    -6.94005    1.65781   18.12575
      H1    -7.29037    2.59206   18.05700
       H    -2.53134    0.50647   10.65140
       O    -1.80404   -0.13474   10.93910
      H1    -1.04328    0.45793   11.17524
       H    -2.62645   -0.70081   12.55174
       O    -3.00169   -0.46555   13.41750
      H1    -3.71896   -1.09456   13.50388
       H    -6.98485    0.92805   16.44018
       O    -7.40735    0.64094   15.62880
      H1    -6.83216   -0.01202   15.23379
       H    -3.30258   -5.26137   13.30823
       O    -3.53397   -4.83031   12.52585
      H1    -4.50662   -4.87768   12.64216
       H    -3.12114   -5.65342   15.94384
       O    -3.76232   -5.86808   15.26082
      H1    -4.61895   -5.70063   15.71485

