90
frame 2 | Written by MDAnalysis XYZWriter (release 2.4.3)
       H   -12.79120    9.32512   -2.10603
       O   -12.30996    8.54351   -2.37253
      H1   -12.83333    8.13225   -3.03407
       H   -11.69379   10.47764    1.42173
       O   -12.11383   11.27663    1.73311
      H1   -12.29371   11.79073    0.96158
       H   -13.67225    6.42050   -4.18631
       O   -13.29500    5.58702   -4.49345
      H1   -13.65721    5.67066   -5.33791
       H    -7.35681    4.72664   -0.66665
       O    -6.46993    5.13239   -0.76613
      H1    -6.77636    5.97120   -1.25064
       H    -5.75220    8.57016    1.26120
       O    -6.47011    8.80538    0.66981
      H1    -7.17448    8.20809    0.88065
       H   -10.28281    8.05054    1.10339
       O   -11.09513    8.46529    0.81301
      H1   -11.67686    7.71193    0.76116
       H    -9.62456   11.74450   -1.50058
       O   -10.45636   11.23206   -1.43263
      H1   -10.54793   10.72977   -2.22340
       H   -11.11640    6.07906    2.85293
       O   -10.55884    5.47189    2.29942
      H1   -11.33016    5.07022    1.79660
       H    -7.87518    9.03034    4.17615
       O    -8.84090    9.13502    4.08756
      H1    -8.93111   10.10062    3.95274
       H    -8.80088    6.22353    2.15333
       O    -8.10335    6.64979    1.65092
      H1    -7.86074    6.02490    1.00152
       H    -9.43707   12.33263    3.42490
       O   -10.14571   11.76034    3.74683
      H1   -10.78217   11.78141    2.98797
       H   -15.56641    9.42144   -0.74406
       O   -14.97671    9.33190    0.06337
      H1   -15.42266    9.67356    0.81604
       H   -16.48187    4.54057    1.08127
       O   -15.57166    4.49642    1.40662
      H1   -15.11286    5.21003    1.01171
       H   -10.61963    7.04093   -4.83103
       O    -9.86519    6.45253   -4.87032
      H1    -9.72781    6.16059   -3.94866
       H   -11.76088    8.45290    5.06661
       O   -12.03047    9.39484    5.11424
      H1   -11.30138    9.81916    4.65463
       H    -8.41997    2.93737   -1.08349
       O    -8.74517    3.62943   -0.44985
      H1    -9.29543    4.21681   -0.98895
       H    -8.50854    9.23514   -5.10490
       O    -9.16189    9.67836   -4.53929
      H1    -9.00549    9.27513   -3.66821
       H   -15.90024    4.03498    4.24953
       O   -14.99169    3.94344    3.92798
      H1   -15.18221    4.18980    2.99027
       H   -15.53487    6.72543    2.92000
       O   -16.42330    6.91285    3.28640
      H1   -16.65324    7.57143    2.72010
       H   -10.45756    3.56393    4.50562
       O    -9.85612    4.03304    5.09199
      H1    -9.94454    4.94023    4.93108
       H   -16.61280    7.09501   -0.13428
       O   -17.41451    7.43676    0.29868
      H1   -18.15834    6.88592    0.02993
       H    -8.27048    8.33647   -1.94389
       O    -9.25837    8.49639   -2.06966
      H1    -9.52033    8.99754   -1.28968
       H   -10.48899    7.01448    5.38156
       O   -11.09326    6.88520    4.63696
      H1   -11.80054    6.39795    5.10802
       H   -13.97703    6.46057    0.08987
       O   -14.18983    6.89272    0.92406
      H1   -14.45666    7.82371    0.65787
       H   -14.16865    6.15197    5.45956
       O   -13.37383    5.51388    5.52055
      H1   -13.67480    4.74416    5.05004
       H   -14.04295   12.75802    2.84394
       O   -13.98265   12.08388    3.48929
      H1   -13.30407   11.54141    3.11911
       H   -12.30082    3.93315   -1.01708
       O   -12.38479    4.77032   -1.51251
      H1   -12.38013    4.31993   -2.38903
       H   -14.32134    4.76107   -1.54566
       O   -15.23892    5.04164   -1.78202
      H1   -15.50719    4.39094   -2.50605
       H   -10.80101    5.83395   -1.89446
       O    -9.83328    5.74178   -2.14380
      H1    -9.58813    6.66253   -2.13724
       H   -13.45287   10.53329   -0.17543
       O   -13.12802   11.20063   -0.87373
      H1   -12.17000   11.11705   -0.71280

