90
frame 2 | Written by MDAnalysis XYZWriter (release 2.4.3)
       H   -10.75386   -5.83236  -19.49693
       O   -11.08245   -6.57651  -19.01913
      H1   -11.00471   -7.26137  -19.66804
       H   -15.72472   -0.72581  -17.22510
       O   -15.78269   -0.26244  -18.07837
      H1   -16.63126   -0.61728  -18.35137
       H   -17.19128   -3.75196  -14.90789
       O   -16.41908   -3.86499  -15.51116
      H1   -16.75366   -3.69753  -16.37922
       H   -11.59015   -2.07310  -16.50538
       O   -12.18992   -1.34461  -16.58961
      H1   -12.89133   -1.59808  -15.90376
       H   -15.24786   -2.96562  -19.02111
       O   -15.92559   -3.64900  -18.87218
      H1   -15.32635   -4.48107  -18.85207
       H   -16.67792   -1.12088  -12.19077
       O   -16.23194   -1.38117  -12.98475
      H1   -16.60926   -0.71640  -13.56154
       H   -13.96098   -2.15462  -19.73756
       O   -13.36225   -2.29539  -19.00217
      H1   -13.52857   -1.57329  -18.43927
       H   -12.56840   -1.91913  -13.43906
       O   -12.63663   -0.97668  -13.45549
      H1   -11.69069   -0.69785  -13.56723
       H   -10.70663   -3.40898  -14.01965
       O    -9.79160   -3.62701  -14.23965
      H1    -9.58472   -3.39896  -15.14108
       H   -18.84996   -0.35561  -19.11192
       O   -19.29099   -0.65960  -18.30597
      H1   -18.98045   -1.63724  -18.28006
       H   -17.16872    1.13250  -15.11418
       O   -17.73975    0.68295  -14.40818
      H1   -17.44409    1.17188  -13.63364
       H   -12.85997    3.77365  -18.88874
       O   -13.15210    4.60422  -18.58724
      H1   -13.48537    4.35205  -17.71778
       H   -13.84515    3.34488  -16.01024
       O   -14.56334    3.98097  -16.25807
      H1   -15.32968    3.36232  -16.42272
       H   -11.42099    0.16527  -17.01289
       O   -11.14234    0.87427  -17.62846
      H1   -10.25730    1.04963  -17.35442
       H   -15.52257   -2.99001  -13.25696
       O   -15.42852   -3.91726  -12.99333
      H1   -14.89985   -4.36586  -13.68912
       H    -9.41518   -1.57047  -17.14763
       O    -9.59123   -2.53563  -17.15537
      H1    -9.61788   -2.71738  -18.10285
       H    -9.42792   -0.52140  -13.42655
       O   -10.16616    0.06783  -13.64711
      H1    -9.86608    0.88262  -13.24849
       H   -18.26417   -4.21655  -18.17242
       O   -18.54098   -3.37900  -17.70507
      H1   -19.09992   -3.74574  -17.01418
       H   -17.20152    2.10304  -17.18525
       O   -16.39289    1.94102  -16.62443
      H1   -16.00368    1.19464  -17.12836
       H   -12.98673   -4.06710  -12.85176
       O   -12.52082   -3.56569  -13.51536
      H1   -12.49979   -4.22906  -14.23463
       H   -13.91680    0.47081  -13.57976
       O   -14.41707    1.07379  -14.21493
      H1   -15.15271    1.43286  -13.69393
       H   -15.43336   -6.31447  -15.18496
       O   -16.05631   -7.10120  -15.15466
      H1   -15.64407   -7.58490  -14.44631
       H    -8.94115    0.19008  -15.24720
       O    -8.80320   -0.00393  -16.17913
      H1    -7.94266   -0.49351  -16.22309
       H   -15.79613   -6.58976  -17.98882
       O   -15.37393   -6.62669  -18.83348
      H1   -14.41174   -6.90705  -18.66243
       H   -11.32178    2.89783  -14.33643
       O   -10.42824    3.07021  -14.02511
      H1   -10.49338    2.99442  -13.08587
       H   -13.63504   -4.74976  -15.77662
       O   -13.92711   -5.35662  -15.06355
      H1   -13.51385   -6.19417  -15.44805
       H   -13.19888    1.65837  -15.30370
       O   -12.64834    2.33716  -15.80172
      H1   -12.22962    1.82149  -16.51898
       H   -12.73146   -5.06936  -17.90233
       O   -12.56854   -4.42845  -17.22824
      H1   -12.78749   -3.63821  -17.76145
       H   -15.31394   -2.47832  -15.67452
       O   -14.77721   -1.65949  -15.73074
      H1   -14.85443   -1.22074  -14.88854
       H   -12.64981   -7.89483  -16.24355
       O   -12.92577   -7.28694  -16.96471
      H1   -12.04313   -7.10784  -17.22367

