90
frame 2 | Written by MDAnalysis XYZWriter (release 2.4.3)
       H     5.48334    4.16721   12.34574
       O     5.30774    3.71942   11.50605
      H1     4.68487    3.01153   11.73728
       H     4.81439    8.78905   14.43295
       O     4.28581    8.20918   14.98328
      H1     4.39990    7.29992   14.59130
       H     7.09171    2.57699   13.73137
       O     8.00427    2.86403   13.87590
      H1     8.32975    2.69013   12.97486
       H     7.47962    3.07607   11.18591
       O     8.44981    3.05936   11.23471
      H1     8.64064    2.22365   10.75931
       H     2.56687   -1.41565   14.65489
       O     3.19369   -0.64044   14.68984
      H1     2.67653   -0.24940   15.41151
       H     5.09312    4.64825   10.02388
       O     4.94451    5.28265    9.24519
      H1     4.69234    4.61975    8.60121
       H     4.05553    8.32028    9.45328
       O     3.92833    8.61940   10.36993
      H1     4.01862    7.88956   10.97266
       H     0.66157    3.39506    8.46480
       O     1.52436    3.17750    8.70340
      H1     1.44928    3.70320    9.53378
       H     3.51735   -1.10594    9.93649
       O     4.43814   -1.03083    9.60517
      H1     5.03111   -1.25364   10.34855
       H     4.08227    1.98468    7.32667
       O     4.07449    2.83146    7.85053
      H1     3.14486    2.87594    8.13875
       H     3.78227    5.92487   11.74122
       O     4.08735    6.68747   12.23684
      H1     3.33950    6.89291   12.78936
       H     1.37584    0.12417   11.41317
       O     2.02746   -0.65843   11.36439
      H1     1.63196   -1.26622   10.66646
       H     5.90532    0.22584   12.41390
       O     5.95074   -0.66919   12.01151
      H1     6.28280   -1.33717   12.67637
       H     1.35382    5.18546   11.17572
       O     1.94007    4.44026   11.09409
      H1     1.93628    4.07209   12.04511
       H     4.95362    4.81012   15.21633
       O     4.08762    4.86861   15.75981
      H1     4.45165    5.05795   16.66555
       H     6.84452    7.99356   12.92795
       O     7.26801    7.22428   12.56403
      H1     7.93096    7.08272   13.23575
       H     9.95828    3.91024   11.11556
       O    10.86525    4.28639   11.31224
      H1    11.38987    4.14530   10.50576
       H     0.84403    5.40929   15.27449
       O     1.44607    4.66993   15.34917
      H1     2.25450    5.06800   15.72076
       H     6.56319    1.73940   16.01278
       O     6.87438    2.00775   16.90109
      H1     7.82835    1.99464   16.80864
       H     2.80126    2.46416   17.54476
       O     3.29197    2.15053   16.77720
      H1     3.44436    2.98446   16.27041
       H     9.34796    0.24538   10.61805
       O     8.40779    0.52745   10.57510
      H1     7.84793   -0.14096   10.99249
       H     4.06328    0.88194   13.11606
       O     3.76144    1.53611   12.45364
      H1     3.32529    0.92731   11.86656
       H     0.87536    2.26095   11.63205
       O     0.57919    1.49488   11.05718
      H1     0.80768    1.94479   10.21128
       H     5.29276    8.05485    7.65636
       O     4.38210    7.79460    7.93168
      H1     4.51755    6.94589    8.39263
       H     5.38948    0.10434   14.74113
       O     5.98839    0.82013   14.46425
      H1     6.93251    0.47982   14.64175
       H     7.00481    4.61721   13.98083
       O     6.16830    5.03074   13.61500
      H1     6.53402    5.74327   13.05422
       H     4.89485    4.04685    6.28385
       O     5.40078    4.60018    5.65650
      H1     6.31019    4.41895    5.80799
       H     7.11985    6.65734    7.60607
       O     7.38244    6.33932    8.50207
      H1     6.52900    5.90159    8.72026
       H     2.31152    2.18590   13.48774
       O     1.66343    2.91453   13.23634
      H1     1.81379    3.52937   13.95370
       H     8.73259   -0.23328   15.75690
       O     8.36187   -0.06621   14.87058
      H1     8.91614    0.65120   14.60698

