90
frame 2 | Written by MDAnalysis XYZWriter (release 2.4.3)
       H    -7.96979  -11.85322    8.51049
       O    -7.23813  -12.48601    8.44711
      H1    -6.65584  -12.13636    9.10513
       H    -3.50886  -11.99296    6.86441
       O    -3.70943  -11.72100    5.92582
      H1    -3.36899  -10.81377    5.94293
       H    -7.46899  -12.95996    2.49051
       O    -7.68062  -13.76257    1.98307
      H1    -6.78262  -14.12783    1.80067
       H    -5.03408  -15.59941    9.42413
       O    -5.99481  -15.81689    9.44357
      H1    -6.26280  -15.57808    8.52774
       H    -7.22216  -10.41230    2.97752
       O    -6.69883  -11.20981    3.05791
      H1    -6.60946  -11.15287    4.03837
       H   -10.16889  -15.77301    4.24385
       O    -9.22696  -15.52359    4.31187
      H1    -9.04993  -15.01718    3.50209
       H    -6.87425  -13.41598   10.71515
       O    -7.15857  -14.17120   11.22000
      H1    -6.74147  -14.90508   10.67178
       H   -12.17866  -15.77016    6.50428
       O   -12.85600  -15.35122    7.07437
      H1   -12.63807  -14.41230    6.98981
       H    -3.41118  -17.48361   10.70797
       O    -3.35561  -17.07718    9.80532
      H1    -2.92555  -17.79521    9.27907
       H    -4.90760  -15.19428    1.06009
       O    -5.37951  -14.96745    1.88420
      H1    -5.23291  -15.72501    2.46366
       H    -3.25615  -13.00623    9.22178
       O    -3.88623  -12.81890    8.52860
      H1    -3.91626  -13.70131    8.08596
       H   -12.13068  -17.06748    4.60156
       O   -11.53872  -16.50699    5.18321
      H1   -10.87043  -17.18318    5.38540
       H   -10.47800  -15.31200    9.97830
       O   -10.75445  -16.00523    9.37015
      H1   -11.40185  -15.48039    8.82578
       H    -5.37110  -18.16784    8.09584
       O    -5.07349  -18.43501    7.24783
      H1    -5.75408  -19.11565    6.97973
       H    -7.57202  -14.22716    7.06307
       O    -7.19217  -15.13182    7.01681
      H1    -7.98363  -15.69638    7.21898
       H    -9.61712  -10.83110    3.31129
       O    -9.80335  -11.73337    3.00252
      H1    -9.65071  -12.25433    3.77323
       H    -6.37879  -15.83413    5.38632
       O    -5.99144  -16.23104    4.59044
      H1    -6.82909  -16.60709    4.19113
       H    -8.15900  -18.30226    8.25098
       O    -7.80256  -19.19668    8.40341
      H1    -7.13355  -19.13184    9.06914
       H    -8.74789  -18.15743    2.38892
       O    -8.19985  -17.38197    2.60730
      H1    -8.73265  -16.94189    3.26059
       H    -9.87754  -16.63993    8.17499
       O    -9.32120  -16.88437    7.42268
      H1    -9.80761  -17.61414    7.04392
       H   -10.81014  -13.08691    5.54514
       O   -11.68942  -13.00641    5.94189
      H1   -12.24437  -12.89476    5.18677
       H    -8.00394  -12.76984    5.30631
       O    -8.84446  -13.20953    5.55863
      H1    -8.75096  -14.09541    5.13073
       H    -2.59016  -15.40670    6.84330
       O    -3.56773  -15.27633    6.87869
      H1    -3.92441  -16.17913    6.65923
       H    -5.39543  -11.42993    5.81019
       O    -6.35839  -11.37957    5.85178
      H1    -6.49100  -11.48812    6.80185
       H   -10.22141  -13.66740   10.71838
       O    -9.94151  -14.41565   11.28857
      H1    -8.96859  -14.46269   11.11356
       H    -3.24174  -18.68346    5.07643
       O    -3.11974  -17.77289    4.68644
      H1    -3.99123  -17.44537    4.55374
       H    -4.25997  -13.06272    4.56791
       O    -4.05220  -13.49854    3.71246
      H1    -4.76170  -14.10559    3.57851
       H    -5.66881  -19.12425   10.18220
       O    -6.20173  -18.36519   10.29910
      H1    -5.61893  -17.60402    9.98372
       H    -9.63273  -19.62435    4.97480
       O   -10.25677  -18.98114    5.32593
      H1   -10.66064  -19.55224    6.01476
       H    -4.96400  -11.37416   11.17965
       O    -5.85195  -11.50613   10.74483
      H1    -6.32394  -10.69543   10.99184

