90
frame 2 | Written by MDAnalysis XYZWriter (release 2.4.3)
       H    14.93371  -18.91714   -2.34220
       O    14.51587  -19.01276   -3.16084
      H1    14.54983  -19.98552   -3.29432
       H    11.48255  -12.31384   -3.82256
       O    10.67109  -12.72383   -4.14293
      H1    10.57442  -12.12647   -4.95272
       H    11.36607  -14.54991   -3.00508
       O    11.05447  -15.26174   -2.42358
      H1    11.42032  -15.98351   -2.93432
       H     7.46086  -17.39919  -10.77263
       O     8.37146  -17.70934  -10.79570
      H1     8.97501  -17.08754  -10.27016
       H     5.75037  -14.09187   -3.68605
       O     4.78836  -13.95436   -3.32411
      H1     4.48781  -13.37109   -4.05959
       H    11.33098  -18.19292   -3.79315
       O    11.97374  -17.84655   -3.18268
      H1    12.70921  -18.46138   -3.25407
       H     5.70292  -17.39619   -9.48253
       O     5.60031  -17.58433  -10.38318
      H1     4.99750  -16.86351  -10.60413
       H    15.62052  -18.85070   -8.21225
       O    14.89993  -19.34680   -8.60975
      H1    14.16193  -19.12521   -8.03580
       H     8.97570  -14.71418   -4.86965
       O     9.70593  -14.90789   -5.49776
      H1    10.30383  -14.21376   -5.19989
       H     8.31385  -14.83216   -8.12908
       O     9.30709  -14.76503   -8.01505
      H1     9.37246  -14.75708   -7.07406
       H     9.99667  -16.71094    0.07861
       O     9.43258  -16.48631    0.84177
      H1     9.60278  -15.52207    0.97079
       H     7.60382  -15.48392   -3.01449
       O     7.46377  -14.83964   -3.72248
      H1     7.01315  -15.44925   -4.33839
       H    11.31376  -15.80749  -11.17841
       O    11.48743  -15.54333  -12.10388
      H1    12.41341  -15.30239  -12.06747
       H     5.75529  -17.32336   -1.66167
       O     5.31341  -16.94906   -2.44903
      H1     4.67021  -16.45912   -1.95881
       H     8.70489  -18.64966   -3.34853
       O     8.77630  -18.93412   -2.41516
      H1     9.05291  -19.84126   -2.55517
       H     6.78508  -13.59946   -7.37474
       O     6.55746  -14.56962   -7.71743
      H1     6.37917  -14.98163   -6.83315
       H    11.15902  -16.95085   -9.05787
       O    10.77883  -16.34286   -9.67008
      H1    10.20813  -15.81991   -9.01731
       H    14.72619  -17.48963   -0.48358
       O    14.81567  -16.82977   -1.18653
      H1    14.31835  -16.08215   -0.75358
       H     9.38993  -13.91803   -1.91064
       O     8.89765  -13.35626   -1.35215
      H1     7.97370  -13.46888   -1.67705
       H    10.48162  -17.33536   -6.01782
       O    10.17336  -17.92379   -5.33400
      H1     9.65404  -18.65573   -5.69928
       H    14.41298  -15.49197   -4.96482
       O    14.22805  -14.64167   -5.45068
      H1    14.23655  -14.05045   -4.66958
       H    12.12858  -13.14669   -8.70787
       O    11.23772  -12.86177   -8.90979
      H1    10.63307  -13.54002   -8.57744
       H    11.88014  -19.68267   -7.53324
       O    11.84475  -18.87655   -8.08403
      H1    12.02623  -19.19903   -8.94942
       H    13.60512  -12.68876   -8.20138
       O    13.82304  -13.65108   -8.10885
      H1    13.73042  -13.84104   -7.15003
       H    13.27513  -13.98031    0.09857
       O    13.32198  -14.88105   -0.23814
      H1    12.60369  -14.77050   -0.91208
       H     6.24873  -17.20569   -6.26289
       O     6.03849  -16.46325   -5.68682
      H1     5.16509  -16.73960   -5.35273
       H    16.41678  -16.39660   -3.86708
       O    15.87505  -16.84190   -4.49435
      H1    15.42572  -17.49883   -3.99351
       H     4.78257  -19.37128   -3.67661
       O     5.16873  -18.99289   -4.51592
      H1     5.43194  -18.12500   -4.07419
       H     7.35683  -18.52026   -1.14872
       O     6.79606  -18.24862   -0.40237
      H1     6.24513  -19.05146   -0.23283
       H    10.07862  -18.66299   -1.24621
       O    10.90472  -18.43923   -0.76461
      H1    11.41940  -18.03750   -1.49840

