90
frame 2 | Written by MDAnalysis XYZWriter (release 2.4.3)
       H    16.38412  -16.14068   -1.78646
       O    16.92139  -15.60160   -2.37726
      H1    17.77931  -15.89448   -1.96976
       H    17.00394   -6.25945   -4.28483
       O    17.29967   -6.82119   -3.58205
      H1    18.02555   -6.27114   -3.21260
       H    19.05927  -12.25637    0.16489
       O    19.27169  -12.86046   -0.57169
      H1    18.80681  -12.32354   -1.25188
       H    13.67578   -8.61447   -4.51623
       O    13.92242   -9.04935   -3.68619
      H1    13.29252   -9.76881   -3.51172
       H    16.18900   -6.48303   -7.37440
       O    15.82507   -6.57436   -6.45091
      H1    15.42102   -5.72159   -6.16504
       H    13.01211   -7.96851   -0.87296
       O    12.70033   -7.54771   -1.72005
      H1    13.23220   -8.00906   -2.43693
       H    16.18856   -9.26091    1.80133
       O    16.23136   -8.38859    1.29485
      H1    16.74312   -8.56526    0.45611
       H    16.36269  -15.58171    0.32245
       O    16.57845  -15.17568    1.18938
      H1    16.30273  -15.87150    1.81349
       H    19.73249   -9.62134   -5.70116
       O    19.47058   -8.99535   -5.03898
      H1    18.50289   -9.10271   -4.97156
       H    17.23627  -12.81485   -7.64500
       O    17.87289  -12.07811   -7.87656
      H1    18.21803  -12.45487   -8.68498
       H    16.07665  -13.65929   -2.62516
       O    15.59555  -12.82603   -2.75790
      H1    16.25886  -12.33483   -3.26824
       H    18.39554   -4.58146    0.66331
       O    18.82775   -5.42769    0.68882
      H1    19.58923   -5.26847    1.19664
       H    14.48119   -8.39806    0.92562
       O    13.52938   -8.27059    0.82065
      H1    13.17264   -9.21661    0.93629
       H    13.62390  -11.96790   -2.67796
       O    12.69790  -11.57780   -2.68497
      H1    12.68140  -11.37378   -1.76347
       H    16.75199   -9.67749   -6.83985
       O    16.89447   -9.15137   -6.01763
      H1    16.33135   -8.40666   -6.08954
       H    18.64801   -9.36658    4.54838
       O    19.16597   -8.91607    3.92605
      H1    18.75836   -8.10369    3.61922
       H    15.78176  -12.02417   -1.24982
       O    16.00149  -11.33533   -0.58432
      H1    16.20382  -11.81689    0.18042
       H    19.05777   -6.28290   -6.56069
       O    19.46119   -7.07792   -6.92093
      H1    19.41327   -7.72023   -6.15760
       H    15.87539   -5.53987   -2.47054
       O    15.26256   -4.79000   -2.54339
      H1    15.76919   -4.10501   -2.15729
       H    19.88482   -4.62233   -2.37143
       O    18.97882   -4.88649   -2.04267
      H1    19.13110   -5.19702   -1.14760
       H    18.15371   -9.46580   -1.17242
       O    18.02493   -8.57726   -0.72929
      H1    17.89659   -8.07845   -1.58183
       H    14.41298  -15.49197   -4.96482
       O    14.22805  -14.64167   -5.45068
      H1    14.23655  -14.05045   -4.66958
       H    16.96124   -7.41348    2.58893
       O    17.39591   -6.70950    3.11864
      H1    18.02587   -6.25923    2.47832
       H    16.36794   -9.91062   -4.57066
       O    16.24969  -10.36488   -3.69503
      H1    15.35991  -10.05309   -3.40461
       H    15.70642  -14.42962   -6.64580
       O    16.27270  -14.19034   -7.44705
      H1    15.65660  -14.26627   -8.17036
       H    18.93317  -10.30702   -3.11833
       O    18.49833  -10.62361   -2.28106
      H1    17.55835  -10.60871   -2.58391
       H    13.83712  -10.53222    2.96468
       O    14.84150  -10.51102    2.89380
      H1    15.13581  -11.33236    2.46125
       H    19.27929  -16.52904   -0.54113
       O    18.90994  -17.19758   -1.13958
      H1    19.68559  -17.49388   -1.58865
       H    16.41678  -16.39660   -3.86708
       O    15.87505  -16.84190   -4.49435
      H1    15.42572  -17.49883   -3.99351
       H    16.80332  -13.06395    2.30644
       O    16.95510  -12.34761    1.65620
      H1    17.74588  -11.82360    2.00714

