90
frame 2 | Written by MDAnalysis XYZWriter (release 2.4.3)
       H    -1.09646   14.30506   -2.09480
       O    -1.71663   14.04325   -1.40053
      H1    -1.60855   14.81134   -0.81613
       H    -5.36036   19.09745   -8.08962
       O    -4.37658   19.19581   -8.33508
      H1    -4.14997   19.85037   -7.64514
       H    -3.38892   12.97520   -6.87756
       O    -3.11628   12.11441   -7.25384
      H1    -2.26046   12.31308   -7.61775
       H    -1.97464   20.05573   -0.65451
       O    -1.28919   19.50155   -0.25851
      H1    -1.53262   18.62598   -0.52880
       H    -4.85701   16.64795   -4.87687
       O    -4.02523   16.59832   -4.42712
      H1    -4.40434   15.98035   -3.76778
       H    -6.80176   12.16957   -7.38268
       O    -7.14600   13.01155   -7.67007
      H1    -6.98606   13.54644   -6.91304
       H    -7.20749   16.84185   -5.79256
       O    -6.71724   16.42870   -5.07474
      H1    -7.11677   15.52983   -4.96199
       H    -6.66193   17.73987   -0.97668
       O    -6.61851   18.62006   -0.60171
      H1    -5.85116   19.00802   -1.10973
       H    -3.60738   12.64077    0.37488
       O    -4.49323   13.06796    0.07406
      H1    -5.07016   12.52914    0.60413
       H    -2.40657   16.70028   -0.14191
       O    -1.42207   16.75814   -0.30729
      H1    -1.23993   16.86609   -1.26952
       H    -7.91830   16.02846   -1.76833
       O    -7.09856   16.40050   -2.19411
      H1    -7.32161   16.71714   -3.09663
       H    -3.78077   18.29181   -4.27731
       O    -3.74988   19.28754   -4.33244
      H1    -3.83621   19.45550   -3.38255
       H    -2.22436   17.28348   -6.91300
       O    -1.50553   17.34126   -6.27878
      H1    -1.16837   18.22710   -6.56205
       H    -5.86731   15.09126   -2.48405
       O    -5.16152   14.48445   -2.84720
      H1    -4.89254   14.08231   -1.96864
       H     1.27103   15.21485   -6.53125
       O     0.58619   15.47588   -7.21079
      H1     0.13194   16.03652   -6.57578
       H    -7.33624   19.35295   -8.33772
       O    -7.04658   18.72820   -7.64643
      H1    -7.44805   17.90765   -7.96532
       H     0.60120   14.35724   -2.86600
       O     0.00877   14.51227   -3.61969
      H1    -0.46361   13.68543   -3.78330
       H    -0.34216   12.74344   -8.79494
       O    -0.59212   13.03112   -7.87023
      H1    -0.31660   13.94797   -7.77487
       H    -1.90272   13.04999   -5.34166
       O    -1.60545   12.50310   -4.63850
      H1    -2.23146   12.60307   -3.94473
       H    -3.73388   17.52793   -8.37731
       O    -3.31063   16.63995   -8.36490
      H1    -3.90165   16.14733   -8.92206
       H    -3.11026   14.80405   -7.02494
       O    -3.04738   14.55825   -6.09952
      H1    -3.18295   15.40849   -5.64615
       H    -8.51348   11.31579   -3.81818
       O    -8.35542   11.98915   -3.16045
      H1    -7.42990   11.83201   -3.00729
       H    -4.66402   14.71874  -10.70409
       O    -4.92342   14.73059   -9.78634
      H1    -4.98176   13.76424   -9.59966
       H    -8.94722   14.79429   -4.88214
       O    -8.18120   14.25202   -5.19907
      H1    -8.11031   13.43662   -4.62679
       H    -7.15787   15.32891   -8.89369
       O    -7.61955   16.12771   -9.19810
      H1    -7.15175   16.36712  -10.00909
       H    -0.67825   16.92956  -10.32659
       O    -1.52504   17.36041  -10.61074
      H1    -2.21620   17.13084   -9.97032
       H    -1.03642   18.34565   -3.53235
       O    -0.87592   17.37002   -3.33672
      H1    -1.32265   17.03718   -4.12861
       H    -5.58937   11.93087   -4.87171
       O    -5.34823   12.78191   -5.23765
      H1    -5.61482   13.47547   -4.63433
       H     1.06766   17.49895   -3.20368
       O     1.91260   17.39915   -2.73719
      H1     2.34479   18.21318   -3.11016
       H    -4.73655   16.07655    0.66929
       O    -3.86923   15.67666    0.46915
      H1    -4.24976   14.85727    0.12946

