90
frame 2 | Written by MDAnalysis XYZWriter (release 2.4.3)
       H    -1.22947    1.32171   14.13006
       O    -1.54843    2.16297   14.45288
      H1    -1.03526    2.81933   13.99045
       H     4.81439    8.78905   14.43295
       O     4.28581    8.20918   14.98328
      H1     4.39990    7.29992   14.59130
       H    -4.93435    5.13213   16.56645
       O    -4.89862    5.32223   17.51751
      H1    -4.07646    4.88912   17.85362
       H    -1.85572    5.11153   18.67916
       O    -1.89127    5.10425   17.72808
      H1    -1.33025    4.35912   17.47908
       H     0.38012    3.60146   16.25718
       O    -0.34295    3.18414   16.73926
      H1    -0.66589    2.65331   15.96526
       H    -3.79762   11.16924   12.58933
       O    -2.98790   11.59878   12.71505
      H1    -2.54352   11.62421   11.85357
       H     2.88450    9.85646   12.42218
       O     3.01993   10.77843   12.62049
      H1     2.70311   10.73085   13.53171
       H    -3.34156    8.01381   18.22009
       O    -3.03838    7.97860   19.12471
      H1    -3.08819    7.02679   19.39627
       H    -1.35233    3.90395   10.01381
       O    -1.16003    3.54094    9.13618
      H1    -1.82790    4.07697    8.68949
       H     3.78227    5.92487   11.74122
       O     4.08735    6.68747   12.23684
      H1     3.33950    6.89291   12.78936
       H    -3.87634    2.95465   13.20296
       O    -4.56621    2.27858   13.55415
      H1    -4.03937    1.50187   13.74568
       H     1.35382    5.18546   11.17572
       O     1.94007    4.44026   11.09409
      H1     1.93628    4.07209   12.04511
       H    -4.03720   11.79515   18.48788
       O    -3.24878   11.30218   18.71551
      H1    -3.18491   10.68829   17.94926
       H     4.95362    4.81012   15.21633
       O     4.08762    4.86861   15.75981
      H1     4.45165    5.05795   16.66555
       H     0.26549    7.12449   15.79511
       O     0.04724    7.23437   14.88729
      H1    -0.93456    6.97760   14.84987
       H     1.01362    9.70567   15.55510
       O     0.34727    9.89353   14.90348
      H1     0.06218    8.98443   14.70208
       H     0.84403    5.40929   15.27449
       O     1.44607    4.66993   15.34917
      H1     2.25450    5.06800   15.72076
       H    -2.15477    7.54900   10.45372
       O    -1.21543    7.31366   10.74285
      H1    -0.84243    7.29928    9.81843
       H    -0.12448    5.79232   17.72414
       O     0.59547    6.42696   17.67648
      H1     1.19312    6.00898   18.30438
       H     2.04566    8.17536   17.50280
       O     2.18105    8.85102   16.76063
      H1     3.00804    8.53036   16.37407
       H    -5.33478    4.08577   14.39680
       O    -5.85364    4.38159   15.15742
      H1    -6.64058    3.88819   15.06115
       H    -3.41584    5.62713   14.04999
       O    -3.62639    5.01882   13.30441
      H1    -4.49310    5.34944   13.06138
       H     0.28459   10.41624   17.82216
       O     0.08462    9.87304   18.61171
      H1    -0.08358    9.07796   18.17243
       H    -2.17876    6.13462   16.17716
       O    -2.40772    6.45945   15.26032
      H1    -2.76381    7.33999   15.45094
       H    -2.27681    5.01342   12.16453
       O    -1.64875    4.80910   11.41418
      H1    -1.38979    5.68616   11.15571
       H    -5.71952    7.16268   11.69292
       O    -6.12087    6.38185   12.09195
      H1    -7.08318    6.40413   11.78932
       H     0.64182    7.52057   11.51359
       O     1.36203    7.65052   12.19270
      H1     0.97844    7.37786   12.99096
       H    -2.38648   11.24771   14.59701
       O    -2.14322   11.09750   15.51033
      H1    -1.16958   10.73914   15.41616
       H    -3.37276    9.36141   16.04377
       O    -3.78162    8.70626   16.61831
      H1    -4.71829    8.69371   16.44244
       H     2.31152    2.18590   13.48774
       O     1.66343    2.91453   13.23634
      H1     1.81379    3.52937   13.95370

