90
frame 2 | Written by MDAnalysis XYZWriter (release 2.4.3)
       H     3.99462    7.50205  -13.73572
       O     4.49273    7.88160  -13.00098
      H1     4.14094    8.79157  -12.99790
       H     1.19909    3.74925   -9.20752
       O     1.28498    4.54517   -8.60597
      H1     1.10968    5.33573   -9.25822
       H     2.65191   10.05792  -12.47955
       O     3.31997   10.51691  -13.03105
      H1     3.98971   10.75541  -12.32675
       H     2.43969    1.56910   -9.63244
       O     1.75351    2.10516  -10.04678
      H1     1.21090    1.59515  -10.60336
       H    -3.22123    4.07130  -12.46419
       O    -3.92945    3.82807  -13.12475
      H1    -4.40015    3.21523  -12.56201
       H     3.83144    2.96857  -10.03795
       O     4.39003    3.20402  -10.76812
      H1     4.39648    4.15549  -10.73243
       H     3.33837    1.39196  -13.04434
       O     4.24577    1.11499  -12.83330
      H1     4.54493    1.87922  -12.27597
       H     0.99279    4.86851  -13.55069
       O     1.74159    5.05477  -12.94456
      H1     1.86477    4.21295  -12.48377
       H     6.76051    2.88850  -14.04141
       O     6.37372    2.05602  -14.36672
      H1     5.69301    1.96330  -13.70260
       H     2.30613    8.26498   -8.67108
       O     1.45649    8.19502   -9.15028
      H1     1.64497    7.51478   -9.80964
       H    -1.35236    4.70546  -10.42510
       O    -1.75212    3.90693  -10.78214
      H1    -1.91626    3.33689   -9.98926
       H     1.19131    2.23463  -13.31543
       O     1.82375    2.06973  -14.01279
      H1     2.00231    3.00255  -14.32684
       H    -0.57809    1.36277  -12.32528
       O    -0.03984    2.10870  -12.16376
      H1    -0.65601    2.67744  -11.64515
       H     0.28941    9.82817  -12.20781
       O     1.00026   10.02088  -11.59216
      H1     0.86716    9.40999  -10.86487
       H     2.42158    0.36852  -16.32884
       O     3.30106    0.42884  -16.54176
      H1     3.68904    0.70342  -15.72640
       H     4.87854    6.96637  -15.96560
       O     3.93427    6.85894  -16.22035
      H1     3.53189    7.53795  -15.64448
       H    -3.06999    1.42454  -15.70127
       O    -3.24022    1.44341  -14.71138
      H1    -3.03686    2.40320  -14.46306
       H     6.61179    6.08586  -15.03300
       O     6.60252    6.99689  -15.37534
      H1     7.17623    6.87584  -16.20940
       H     1.22933    8.21832  -14.92715
       O     2.11223    8.44286  -14.75283
      H1     2.09148    9.29827  -15.17326
       H     1.17671    5.32679  -17.47170
       O     1.63988    5.23205  -16.64632
      H1     2.21399    5.97152  -16.47056
       H     5.00900    4.31306  -16.01278
       O     5.30745    3.81091  -16.79745
      H1     4.80134    3.05197  -16.88175
       H     6.07248    8.17718  -12.45007
       O     6.84993    8.44951  -11.96502
      H1     6.44949    8.45362  -11.08576
       H    -1.00545    8.05497  -15.59249
       O    -0.59301    7.75237  -14.77679
      H1    -1.01783    8.31960  -14.13943
       H     5.29572    6.34432  -11.68044
       O     5.81225    5.56685  -11.42819
      H1     6.56072    5.53927  -12.11606
       H    -0.75208    6.82214  -10.69209
       O    -1.00571    6.33292   -9.94301
      H1    -1.87275    6.63876   -9.57955
       H     1.31354    6.58383  -12.38325
       O     0.86180    7.33679  -11.89775
      H1     1.25776    8.06244  -12.34825
       H     0.37518    4.70527  -15.39967
       O    -0.41294    4.86474  -14.87245
      H1    -0.34841    5.80509  -14.77308
       H    -0.69653    3.17759  -15.87428
       O    -0.38197    2.81561  -16.72492
      H1    -1.13683    2.33024  -17.13094
       H     0.18602    0.73300  -15.82745
       O     0.60406   -0.01103  -16.29146
      H1     0.15502   -0.10122  -17.12973
       H    -3.78340    4.89962  -14.69627
       O    -3.48228    5.56854  -15.36244
      H1    -2.51549    5.53264  -15.34741

