90
frame 2 | Written by MDAnalysis XYZWriter (release 2.4.3)
       H   -12.54151   -8.07574   -2.00570
       O   -12.39619   -8.92326   -1.55630
      H1   -11.50842   -9.13388   -1.92930
       H    -6.85416  -12.40557    0.89860
       O    -6.16531  -12.02844    0.31960
      H1    -5.56693  -11.61001    0.96633
       H    -7.46899  -12.95996    2.49051
       O    -7.68062  -13.76257    1.98307
      H1    -6.78262  -14.12783    1.80067
       H    -8.87077   -8.91552    2.48950
       O    -8.98452   -9.35348    3.35401
      H1    -9.12089   -8.56343    3.84210
       H   -10.15865  -14.19363    1.49992
       O   -10.80465  -13.54171    1.25818
      H1   -10.57014  -12.64081    1.54031
       H    -7.22216  -10.41230    2.97752
       O    -6.69883  -11.20981    3.05791
      H1    -6.60946  -11.15287    4.03837
       H   -10.16889  -15.77301    4.24385
       O    -9.22696  -15.52359    4.31187
      H1    -9.04993  -15.01718    3.50209
       H    -8.61226  -10.93476   -2.40467
       O    -8.35049  -11.84746   -2.12409
      H1    -7.67067  -11.74955   -1.48148
       H   -11.89311  -13.21681   -3.23515
       O   -12.16570  -13.59099   -4.10538
      H1   -11.85184  -14.50167   -4.05220
       H    -9.01241  -13.57105   -1.57456
       O    -8.65295  -14.47810   -1.45781
      H1    -9.19080  -14.76991   -0.68627
       H   -12.71741  -10.75245   -0.85026
       O   -13.06037  -11.34788   -0.16221
      H1   -13.64763  -11.92216   -0.68837
       H   -12.13068  -17.06748    4.60156
       O   -11.53872  -16.50699    5.18321
      H1   -10.87043  -17.18318    5.38540
       H    -9.69339  -15.33421   -2.66047
       O   -10.30878  -15.63708   -3.35919
      H1    -9.79807  -15.57667   -4.21736
       H   -14.24966  -13.95850    0.42681
       O   -14.52103  -13.79276   -0.47301
      H1   -15.48673  -13.76253   -0.44641
       H    -9.48707   -8.55921   -1.35406
       O    -9.66076   -9.03728   -2.18905
      H1    -9.99553   -8.43768   -2.86594
       H    -9.61712  -10.83110    3.31129
       O    -9.80335  -11.73337    3.00252
      H1    -9.65071  -12.25433    3.77323
       H   -14.03049  -10.23438    0.89789
       O   -14.70178   -9.99046    1.58875
      H1   -15.48068  -10.28747    1.15522
       H   -11.35776  -12.36838   -1.07386
       O   -11.03033  -12.48744   -1.97779
      H1   -10.13204  -12.10875   -1.99681
       H    -8.74789  -18.15743    2.38892
       O    -8.19985  -17.38197    2.60730
      H1    -8.73265  -16.94189    3.26059
       H   -14.28454  -14.79558    3.47299
       O   -14.77598  -15.15309    4.25505
      H1   -14.08647  -15.05590    4.98772
       H   -10.81014  -13.08691    5.54514
       O   -11.68942  -13.00641    5.94189
      H1   -12.24437  -12.89476    5.18677
       H    -8.00394  -12.76984    5.30631
       O    -8.84446  -13.20953    5.55863
      H1    -8.75096  -14.09541    5.13073
       H   -11.12817   -9.95819    0.84982
       O   -11.41636   -9.06924    1.06360
      H1   -12.09317   -8.96160    0.37118
       H    -7.17695   -8.61617    0.27327
       O    -7.57812   -9.48495    0.44996
      H1    -6.80737  -10.00885    0.23231
       H   -11.79108   -7.28295    1.40806
       O   -11.91227   -6.35726    1.62756
      H1   -12.50434   -6.43346    2.39900
       H   -16.15022  -11.80502    4.65471
       O   -15.33551  -11.48329    5.10539
      H1   -14.68703  -11.73167    4.46440
       H   -12.71396  -17.17502    0.97767
       O   -11.91250  -17.02290    1.58644
      H1   -11.61678  -17.90539    1.71990
       H   -10.27124  -16.49781    0.92582
       O    -9.44069  -16.05516    0.74421
      H1    -8.88848  -16.43374    1.50729
       H   -12.22237  -11.32711    2.88292
       O   -13.00934  -11.60641    3.35811
      H1   -13.58911  -11.29497    2.67618
       H   -12.41441  -13.93477    1.78729
       O   -13.37573  -13.84820    2.03991
      H1   -13.28112  -12.98134    2.52888

