90
frame 2 | Written by MDAnalysis XYZWriter (release 2.4.3)
       H   -16.88344   19.04932   13.11549
       O   -17.68459   18.52611   13.00460
      H1   -17.52306   17.77173   13.51348
       H    -8.41837   15.70436   18.21764
       O    -9.16914   16.22305   18.52866
      H1    -9.85123   16.15046   17.89727
       H   -17.20197   15.70337   17.87104
       O   -17.02266   16.59924   17.59373
      H1   -17.77714   17.12009   17.95421
       H   -13.85380   16.12638   17.31620
       O   -13.66967   15.23334   16.89835
      H1   -14.07329   14.60454   17.52185
       H   -13.89401    9.41300   12.89411
       O   -13.69728   10.32131   13.07897
      H1   -12.75113   10.32184   13.30707
       H   -16.29408   15.97147   14.66598
       O   -17.05943   16.56977   14.80231
      H1   -17.19890   16.63901   15.78760
       H   -14.47496   16.61047   13.19851
       O   -14.05974   17.41507   12.85531
      H1   -13.35984   17.60097   13.45442
       H   -14.94967    8.19832   14.12327
       O   -14.52243    7.48611   13.61641
      H1   -15.07140    7.62965   12.74706
       H   -14.72868   18.46120   17.33289
       O   -14.54667   17.55056   17.77216
      H1   -15.43066   17.13871   17.82589
       H   -18.48322    6.93633   18.30874
       O   -17.90151    6.77673   17.54570
      H1   -17.57908    7.72254   17.39461
       H   -11.69694   17.73726   19.70620
       O   -11.53794   18.69534   19.49085
      H1   -12.22475   18.87022   18.78599
       H   -15.32672   10.23180   14.74468
       O   -16.04135    9.57476   14.85591
      H1   -16.87907   10.02180   14.61127
       H   -13.48445    8.56614   18.43016
       O   -12.81446    8.09491   17.93128
      H1   -13.25644    7.21320   17.76981
       H   -17.63790   13.30214   18.44842
       O   -17.30971   14.02683   18.99386
      H1   -17.01801   13.58296   19.82679
       H   -11.19207    7.62397   19.01455
       O   -10.63921    7.99176   19.74191
      H1    -9.79379    7.77709   19.39772
       H   -13.75884   12.12254   19.00879
       O   -14.26016   12.86242   18.62576
      H1   -15.13822   12.49542   18.49325
       H   -11.72681   15.53437   16.64715
       O   -11.00153   16.14680   16.48569
      H1   -10.42963   15.69596   15.82785
       H   -18.59129    9.42190   12.77121
       O   -18.55241    9.44359   13.81062
      H1   -19.25961    8.80018   14.00619
       H   -18.04609   17.67622   19.88026
       O   -18.87556   17.79423   19.44990
      H1   -18.86410   18.79695   19.20273
       H   -16.43052   12.39841   13.62446
       O   -16.28726   12.74049   14.50791
      H1   -17.16714   12.95598   14.84970
       H    -9.91942    9.57506   16.64409
       O   -10.63489    9.11629   16.21442
      H1   -11.17103    8.78885   16.94127
       H   -19.03653   11.27296   14.30614
       O   -19.00272   12.01282   14.88109
      H1   -19.14265   12.71841   14.26913
       H   -18.86842   14.57267   13.00550
       O   -19.04341   14.73563   13.95609
      H1   -18.19635   15.19516   14.09513
       H   -17.65066   10.84739   17.75075
       O   -18.21318   11.59296   17.82006
      H1   -18.64285   11.68329   16.95110
       H   -14.55009   15.13245   15.30851
       O   -14.88804   15.09019   14.38502
      H1   -15.34437   14.24939   14.38031
       H   -11.42683   18.93167   15.07344
       O   -12.29810   18.46325   15.21972
      H1   -11.85907   17.60844   15.52377
       H   -16.61110    5.86773   20.10523
       O   -16.12490    5.99011   19.26589
      H1   -16.84341    6.16155   18.52472
       H    -9.77884   14.36993   19.04353
       O   -10.23375   13.56997   19.38587
      H1   -11.22018   13.88091   19.29828
       H   -12.99338   13.16088   11.71678
       O   -13.59893   13.89413   11.85214
      H1   -13.66021   13.83417   12.80605
       H   -16.34879    9.61628   16.56278
       O   -16.92538    9.38189   17.36024
      H1   -16.30608    9.28835   18.12434

