90
frame 2 | Written by MDAnalysis XYZWriter (release 2.4.3)
       H    18.42719   -5.31101  -13.90004
       O    18.16442   -5.36814  -12.95556
      H1    17.55683   -4.52629  -12.91354
       H     9.85064   -2.14586  -13.72260
       O     8.92034   -2.17839  -13.36528
      H1     8.68074   -1.31842  -13.81450
       H    11.74635   -2.06513  -14.43337
       O    11.34091   -2.88068  -14.17305
      H1    10.95823   -3.25212  -14.99238
       H    14.54623   -1.20702  -11.24798
       O    15.02860   -0.44785  -10.96327
      H1    14.51588   -0.14067  -10.21310
       H     8.87603   -2.62499  -11.59494
       O     9.04038   -2.61200  -10.60749
      H1     8.29492   -3.24331  -10.31237
       H    13.91737   -5.01179   -9.45546
       O    13.56760   -4.10257   -9.45568
      H1    12.55501   -4.24845   -9.58185
       H    16.97625   -1.13388  -10.68913
       O    17.73429   -1.57720  -11.03970
      H1    17.74449   -2.27043  -10.32670
       H    13.89913   -3.31851  -10.91530
       O    14.09838   -3.01200  -11.84188
      H1    13.19885   -2.97854  -12.22028
       H     9.57618   -1.01086  -10.46489
       O     9.81653   -0.06978  -10.25520
      H1     8.97673    0.38390  -10.43252
       H    14.96017   -0.10509   -8.06128
       O    13.97093    0.01246   -8.07799
      H1    13.72784   -0.89692   -7.87574
       H    11.24651   -6.05819  -15.08472
       O    10.31755   -6.12526  -14.88792
      H1    10.35046   -5.66563  -14.01023
       H    15.74199   -3.13449  -16.38409
       O    15.91830   -2.53625  -17.07657
      H1    16.76161   -2.20666  -16.72395
       H    18.57674   -1.38177  -15.44230
       O    18.26868   -2.30441  -15.44433
      H1    17.85124   -2.48859  -14.61428
       H    15.69125   -5.84036   -9.86150
       O    16.10431   -5.53151   -9.05309
      H1    16.96095   -5.28689   -9.33618
       H    18.73953   -3.70017   -8.47523
       O    18.36330   -3.80040   -9.34386
      H1    19.25963   -3.70958   -9.72113
       H    17.00582   -2.20404  -12.56910
       O    16.80878   -2.86592  -13.31473
      H1    15.91663   -2.58687  -13.57030
       H    15.27096   -2.66135   -7.74713
       O    15.87973   -2.21572   -8.32161
      H1    16.34029   -3.09550   -8.66558
       H    12.64230   -3.91448  -16.40070
       O    12.63607   -4.84023  -16.13469
      H1    12.99677   -5.30320  -16.92397
       H    12.97589    1.65820  -12.00733
       O    13.64808    1.24641  -12.60462
      H1    14.16569    0.66284  -11.92680
       H    11.43999   -7.31920  -10.17027
       O    10.77604   -7.25847   -9.45554
      H1    10.69863   -6.27974   -9.46231
       H    10.40923   -3.75720   -9.21535
       O    10.96000   -4.35287   -9.74766
      H1    10.59587   -4.42083  -10.64878
       H    15.20823   -6.15185  -14.00551
       O    15.72774   -6.67242  -13.39566
      H1    16.54535   -6.20552  -13.29553
       H    14.70881   -5.05447  -15.74374
       O    15.52951   -4.76177  -15.34001
      H1    16.13500   -5.44795  -15.61779
       H     9.42978   -5.66428  -11.84996
       O    10.27508   -5.62241  -12.26209
      H1    10.58439   -6.53197  -12.11258
       H    13.52784   -3.57703   -6.37108
       O    13.50977   -2.91355   -7.04040
      H1    13.56182   -3.45947   -7.84281
       H    12.60536    0.08949  -13.81662
       O    12.03043   -0.29717  -14.50522
      H1    12.72619   -0.31247  -15.25147
       H    15.40274   -0.19718  -15.19398
       O    14.79920   -0.17769  -15.96254
      H1    14.99886   -0.99542  -16.44426
       H    14.79160   -6.82419  -11.61367
       O    14.18592   -6.80340  -10.85060
      H1    14.30378   -7.70599  -10.42196
       H    12.92855   -7.77910  -11.62959
       O    11.95225   -7.87876  -11.75144
      H1    11.73464   -8.79887  -11.68685
       H    16.54624    1.09659  -13.70814
       O    16.73896    0.26252  -14.09693
      H1    17.48367    0.44291  -14.67025

