90
frame 2 | Written by MDAnalysis XYZWriter (release 2.4.3)
       H    -7.23731  -16.19929   -1.92771
       O    -6.40853  -15.99972   -2.25414
      H1    -6.13550  -15.37465   -1.51818
       H    -1.78773  -14.42110    2.04458
       O    -2.31677  -14.26790    1.28373
      H1    -3.14649  -13.97212    1.71736
       H    -3.71188  -16.57368   -5.62551
       O    -3.67191  -15.63124   -5.71288
      H1    -3.08684  -15.35494   -5.00327
       H     0.82427  -13.11102   -3.82948
       O     1.70843  -13.36458   -3.49973
      H1     1.59613  -14.25649   -3.12425
       H    -6.85416  -12.40557    0.89860
       O    -6.16531  -12.02844    0.31960
      H1    -5.56693  -11.61001    0.96633
       H    -7.46899  -12.95996    2.49051
       O    -7.68062  -13.76257    1.98307
      H1    -6.78262  -14.12783    1.80067
       H    -2.25982  -14.09875   -2.45783
       O    -2.70191  -14.21440   -3.31519
      H1    -2.43874  -13.35378   -3.71429
       H     1.46927  -12.19495    2.43543
       O     0.80620  -12.76140    1.96251
      H1     0.37560  -12.16790    1.40011
       H    -1.13366  -17.05119   -3.54948
       O    -0.72510  -16.19868   -3.83867
      H1    -1.29758  -15.52273   -3.48994
       H    -0.93609  -11.32456    3.53109
       O    -1.06161  -10.67676    2.84747
      H1    -1.63135   -9.97233    3.18030
       H    -4.10338  -18.23510   -1.45402
       O    -4.30303  -19.17977   -1.62837
      H1    -5.06937  -19.06108   -2.20743
       H    -4.90760  -15.19428    1.06009
       O    -5.37951  -14.96745    1.88420
      H1    -5.23291  -15.72501    2.46366
       H     0.80771  -17.98809   -2.43476
       O     1.56373  -17.50852   -2.18268
      H1     1.83148  -17.05202   -3.05970
       H     2.22144  -16.11525   -1.22135
       O     3.04276  -15.51292   -1.20055
      H1     2.57844  -14.75811   -0.84727
       H    -1.23234  -12.50397   -5.64806
       O    -0.39254  -12.32410   -5.16760
      H1    -0.35836  -11.37363   -5.04535
       H     2.12650  -10.60547    1.63437
       O     2.30219  -10.68722    2.56877
      H1     3.09238  -11.23503    2.54161
       H    -1.87712  -13.24252   -0.09642
       O    -1.42455  -12.91692   -0.90092
      H1    -0.48507  -13.13298   -0.70714
       H    -0.83986  -13.81510    4.60325
       O    -0.30323  -13.18267    5.13784
      H1     0.35148  -12.93437    4.53347
       H    -5.16497  -13.44334   -0.28742
       O    -4.95415  -14.28165   -0.75702
      H1    -4.51351  -13.92074   -1.58196
       H    -0.75012  -16.78230    0.03171
       O    -0.04438  -16.23057    0.32577
      H1     0.52366  -16.79260    0.83369
       H    -7.17695   -8.61617    0.27327
       O    -7.57812   -9.48495    0.44996
      H1    -6.80737  -10.00885    0.23231
       H    -0.52656  -11.35771   -0.50464
       O    -0.12225  -10.68550    0.07543
      H1    -0.47803  -10.81726    0.95591
       H     1.15630  -13.31467    0.25818
       O     1.00277  -13.61444   -0.66986
      H1     0.63441  -14.52407   -0.37415
       H    -2.88544  -17.33880    1.19393
       O    -2.85881  -16.68177    0.44761
      H1    -2.64425  -15.81759    0.90640
       H    -4.30338  -10.05600   -3.02320
       O    -4.27116   -9.67528   -3.90967
      H1    -3.69502  -10.24762   -4.45043
       H    -4.25997  -13.06272    4.56791
       O    -4.05220  -13.49854    3.71246
      H1    -4.76170  -14.10559    3.57851
       H    -5.01123   -8.45038   -1.37856
       O    -4.54074   -9.14190   -0.97967
      H1    -4.07543   -8.65062   -0.30276
       H     4.36657  -11.93009   -1.82144
       O     3.64740  -11.29347   -1.82565
      H1     2.92216  -11.81231   -2.17708
       H    -1.92812  -16.22053    4.11286
       O    -1.58703  -15.33565    3.86006
      H1    -2.39071  -14.79033    3.98954
       H     0.34372   -9.37061   -0.93324
       O     0.58679   -8.57374   -1.49773
      H1    -0.30223   -8.23589   -1.61966

