90
frame 2 | Written by MDAnalysis XYZWriter (release 2.4.3)
       H     8.50023   12.27202   -8.82849
       O     9.38024   12.54297   -8.57047
      H1     9.17251   13.38605   -8.08194
       H     8.93100   15.51389   -4.59778
       O     9.63199   16.16198   -4.58297
      H1     9.29214   16.92373   -4.09675
       H     7.04573   14.55910   -1.72232
       O     7.32159   13.59921   -1.67400
      H1     6.85938   13.20282   -2.37523
       H     3.40538   15.02439   -2.18301
       O     4.13468   15.65391   -2.29041
      H1     3.67020   16.52108   -2.35011
       H     5.25210   19.59711   -7.16570
       O     6.18694   19.76343   -7.38570
      H1     6.33319   19.13916   -8.14055
       H    11.60130   14.03738   -7.74268
       O    11.50180   14.30809   -6.77680
      H1    11.80957   15.21588   -6.71062
       H    11.51200   14.80370  -10.34332
       O    11.55188   15.16485   -9.44145
      H1    12.15236   15.95850   -9.56856
       H    10.50107   15.75094   -0.36401
       O     9.83802   16.30719    0.08170
      H1    10.35880   17.12137    0.13232
       H    10.87643   12.65473   -5.07009
       O    11.28584   11.91992   -4.62193
      H1    10.50046   11.31215   -4.52852
       H     3.21722   14.53252   -5.16395
       O     2.32683   14.33035   -5.44168
      H1     1.73768   14.27320   -4.71208
       H     4.60813   17.12061   -7.96683
       O     3.92759   17.79553   -7.66117
      H1     3.19131   17.67146   -8.28629
       H     8.97472   18.11965   -6.95813
       O     8.76301   18.91571   -6.45409
      H1     7.89170   19.20905   -6.81575
       H     4.70620   12.56759   -3.43344
       O     5.51754   12.79279   -3.94901
      H1     5.67437   11.97143   -4.38569
       H     9.15256   14.09186   -2.29280
       O    10.11207   14.31843   -2.07889
      H1    10.09120   15.09363   -2.72169
       H     8.39588   10.98970   -5.09325
       O     8.30454   11.11611   -4.14434
      H1     8.64483   12.02017   -4.14745
       H     5.74129   16.27060   -2.10773
       O     6.66941   16.59144   -2.06846
      H1     6.85338   16.92410   -2.99560
       H     5.24835   18.67758   -0.86583
       O     5.51049   18.31334   -0.00124
      H1     6.03426   17.50012   -0.16007
       H    11.08108   16.72889   -6.10073
       O    11.80915   17.10675   -6.73614
      H1    12.63521   17.13348   -6.23122
       H     5.31949   15.08648   -8.26748
       O     5.74314   15.90943   -7.92533
      H1     5.56909   15.88952   -6.96538
       H     5.96399   18.35203  -10.32946
       O     6.94598   18.58073  -10.02345
      H1     7.00227   19.54700  -10.13595
       H     7.94421   14.04345   -5.98965
       O     8.01708   13.88614   -5.05092
      H1     7.11144   13.41921   -4.79441
       H     8.46383   18.64830  -11.64222
       O     9.22887   19.09836  -11.98382
      H1     9.07438   19.92930  -11.51692
       H     1.06766   17.49895   -3.20368
       O     1.91260   17.39915   -2.73719
      H1     2.34479   18.21318   -3.11016
       H     4.22791   12.82869   -7.38387
       O     4.97180   12.92217   -8.04468
      H1     4.46039   12.99882   -8.92479
       H     5.24488   16.03007   -4.72717
       O     4.72809   15.74928   -5.51003
      H1     4.38512   16.58549   -5.87598
       H    12.55861   15.65571   -1.60093
       O    12.26331   16.48260   -2.09822
      H1    12.30760   17.14898   -1.39476
       H     3.84048   17.32579  -10.95633
       O     4.78478   17.17559  -11.24216
      H1     4.80597   17.33370  -12.19466
       H     9.74242   17.17121   -9.49805
       O     9.22713   17.57202   -8.84404
      H1     8.48010   17.75674   -9.45789
       H     7.49728   17.88548   -5.45047
       O     6.84538   17.70505   -4.70680
      H1     6.25988   18.41832   -4.77002
       H     9.25761   17.09606   -1.53101
       O     9.52022   17.50693   -2.36803
      H1    10.42384   17.12649   -2.51689

