90
frame 2 | Written by MDAnalysis XYZWriter (release 2.4.3)
       H    -5.72743   -8.33685  -10.59257
       O    -5.97165   -8.55445   -9.69815
      H1    -5.43140   -7.89026   -9.15990
       H    -6.25807   -2.21803   -9.98441
       O    -6.92451   -2.28193  -10.71261
      H1    -7.55551   -1.62282  -10.43180
       H    -3.50420   -8.01074   -3.76557
       O    -3.01866   -7.16548   -4.02790
      H1    -3.68651   -6.43253   -3.92760
       H    -0.33178   -2.37515   -7.15524
       O     0.48579   -2.79905   -6.77200
      H1     0.37723   -3.78708   -6.93738
       H    -3.49233    0.03619   -5.18778
       O    -3.04515   -0.69237   -4.72633
      H1    -2.13873   -0.36467   -4.64113
       H     1.81648   -4.61991   -3.70629
       O     2.74148   -4.24171   -3.69067
      H1     2.78138   -3.76430   -2.81340
       H    -2.86894   -5.43086  -10.83814
       O    -2.97138   -6.37707  -10.49877
      H1    -3.85755   -6.29813  -10.06978
       H     2.45394   -2.81378   -6.52831
       O     3.25006   -2.37388   -6.17107
      H1     3.71125   -3.16756   -5.77663
       H     2.73418   -4.22555  -10.00966
       O     1.86341   -4.58750  -10.39351
      H1     1.29600   -4.61963   -9.62956
       H    -2.34990   -7.09092   -2.33105
       O    -1.77983   -7.14353   -1.48743
      H1    -2.14564   -6.49755   -0.81096
       H    -2.34705   -9.73292   -9.96661
       O    -2.80246   -9.23628  -10.73034
      H1    -2.97832   -8.37814  -10.29526
       H     0.05691   -6.97230   -5.02695
       O    -0.59808   -6.27358   -5.18611
      H1    -1.25874   -6.57811   -4.58587
       H    -3.54455   -2.31271   -4.99180
       O    -3.74930   -3.26162   -5.12317
      H1    -4.53554   -3.16279   -5.68755
       H    -1.33603   -3.38079  -11.76888
       O    -2.10175   -3.96417  -11.86143
      H1    -1.72492   -4.78651  -12.28910
       H    -0.59576   -9.59760   -6.79488
       O    -1.07604   -9.86775   -6.00110
      H1    -1.68518   -9.15211   -5.82518
       H    -2.19021   -0.89642   -6.84986
       O    -1.87909   -1.29765   -7.63477
      H1    -1.10646   -0.72336   -7.77715
       H    -4.84618   -8.71049   -6.95710
       O    -5.20446   -9.59324   -6.88376
      H1    -5.20029   -9.93276   -7.79663
       H    -7.55769   -5.18920   -8.97550
       O    -7.31697   -5.17154   -8.06206
      H1    -8.16346   -5.23986   -7.60408
       H     1.07129   -8.67601   -7.88671
       O     0.23271   -9.20962   -8.15915
      H1     0.49416   -9.30656   -9.08803
       H    -5.59572   -5.98791   -8.01767
       O    -4.82261   -6.33269   -8.44159
      H1    -4.13747   -6.55975   -7.73937
       H    -2.90438   -3.98383   -6.63568
       O    -2.44507   -4.59507   -7.19501
      H1    -1.68484   -4.06948   -7.50137
       H    -2.42072   -6.53112   -6.58555
       O    -3.05263   -7.31063   -6.60069
      H1    -3.13805   -7.26923   -5.62728
       H    -3.67641   -3.91274   -2.48412
       O    -4.22919   -4.57230   -2.94752
      H1    -4.16028   -4.22307   -3.88524
       H     0.55054   -5.95332   -7.54661
       O     1.21962   -5.36018   -7.14087
      H1     1.02311   -5.49388   -6.21273
       H    -1.44165   -6.27517   -9.48890
       O    -0.54398   -6.42848   -9.06522
      H1    -0.65267   -7.27769   -8.65998
       H    -0.12187   -3.60987   -3.49692
       O    -0.42008   -2.85455   -3.98782
      H1    -0.05670   -2.95450   -4.87742
       H    -4.19961   -1.80357  -10.00136
       O    -4.25918   -2.41646   -9.22640
      H1    -3.38049   -2.27228   -8.82557
       H    -6.12861   -0.46290   -6.87385
       O    -6.51908    0.24556   -6.45258
      H1    -6.70337   -0.01897   -5.55656
       H    -5.07313   -2.48766   -7.66373
       O    -5.60156   -2.30624   -6.85122
      H1    -6.28785   -2.96241   -6.88140
       H    -1.78020   -3.11485   -2.63518
       O    -2.40202   -3.01690   -1.92053
      H1    -2.04802   -2.25815   -1.42069

