90
frame 4 | Written by MDAnalysis XYZWriter (release 2.4.3)
       H     8.99794   -1.58653   -0.58750
       O     8.47513   -2.25656   -1.01400
      H1     9.11552   -2.99176   -1.17162
       H     5.45933   -1.72345    3.01804
       O     5.40856   -0.91055    2.55936
      H1     6.24373   -0.41774    2.68334
       H     4.10031   -0.97059   -3.03933
       O     4.16820   -1.69525   -3.64423
      H1     5.07195   -2.07819   -3.39615
       H     6.00207   -2.36757    0.94615
       O     6.12432   -3.03543    0.27053
      H1     6.88827   -2.72044   -0.18997
       H     3.19178    4.46489    0.77218
       O     3.67608    3.87054    0.17752
      H1     2.95979    3.46133   -0.29957
       H     0.55751    2.86068    0.59642
       O     0.74481    2.76328   -0.38467
      H1     0.53212    1.79497   -0.46306
       H     6.76197   -5.41303    2.56188
       O     7.43467   -5.09358    1.89448
      H1     6.94078   -4.47387    1.32332
       H     4.10585    0.14189    3.88876
       O     3.32381    0.37852    4.40173
      H1     3.45439    1.35344    4.60686
       H     1.35283   -1.45006   -1.53101
       O     1.57471   -2.27161   -1.95637
      H1     1.99692   -2.11637   -2.75903
       H     0.20410   -3.40537   -2.31442
       O    -0.36152   -4.20808   -2.42698
      H1     0.12418   -4.76178   -3.06037
       H     4.50614   -3.47649    5.03128
       O     4.94903   -3.39605    4.17255
      H1     4.28930   -3.64499    3.50910
       H     2.05870   -3.91887    2.19391
       O     1.87416   -4.01242    3.09962
      H1     1.15298   -3.43466    3.31630
       H     5.28843    2.20873   -0.13737
       O     6.10522    2.39572   -0.64493
      H1     5.93910    3.02426   -1.37897
       H     4.76429    0.86002   -2.89618
       O     3.91862    0.75719   -2.41610
      H1     4.20931    0.48862   -1.54025
       H     1.80448    4.75289   -2.62288
       O     2.11440    3.87666   -2.32981
      H1     1.55282    3.41669   -1.68646
       H    -0.95978   -0.43731   -1.09691
       O    -0.20389    0.14768   -1.32951
      H1    -0.39311    0.76823   -2.07914
       H     1.71686    0.29510    3.94707
       O     0.78868    0.01316    3.78755
      H1     0.71438   -0.91891    4.16291
       H     8.58219    0.07879    1.91050
       O     8.02873    0.27117    2.70249
      H1     8.46817    0.99501    3.10262
       H     2.80248    0.73774   -4.31440
       O     1.96179    0.38051   -4.69680
      H1     2.08252   -0.57712   -4.81393
       H     0.03004    2.86358   -3.25288
       O     0.01802    1.90149   -3.36855
      H1     0.86357    1.58092   -3.65217
       H     7.12232    1.80563   -3.70497
       O     6.92850    1.09749   -3.08742
      H1     6.67401    1.54852   -2.28677
       H     4.60588   -3.78876   -2.85322
       O     5.35006   -4.12949   -2.38880
      H1     5.27502   -3.61872   -1.57675
       H     4.59914   -6.71244    0.04350
       O     3.87076   -6.53247    0.69767
      H1     3.75867   -5.58396    0.67075
       H     4.50343    4.47995   -1.85842
       O     5.28421    4.26168   -2.35659
      H1     5.78991    5.02720   -2.47135
       H     2.21606   -3.15569    0.26178
       O     2.97161   -3.60956    0.61111
      H1     3.71603   -3.02709    0.50416
       H    -0.70584    2.19936    2.05777
       O     0.13016    2.29444    2.52451
      H1     0.20756    1.40750    2.90730
       H     7.83190   -0.75289   -3.41004
       O     8.41080   -1.47654   -3.77512
      H1     8.57407   -2.11125   -3.06575
       H     4.60335   -0.41676    0.90202
       O     4.13632   -0.48022    0.03571
      H1     3.22023   -0.45352    0.39781
       H     0.87580   -0.65624    1.91921
       O     1.21244   -1.21925    1.21114
      H1     0.48307   -1.44938    0.64602
       H     9.24057    0.95558   -0.29439
       O     9.37766    0.29150    0.38187
      H1    10.08592    0.60294    0.92542

