90
frame 2 | Written by MDAnalysis XYZWriter (release 2.4.3)
       H    17.00394   -6.25945   -4.28483
       O    17.29967   -6.82119   -3.58205
      H1    18.02555   -6.27114   -3.21260
       H    14.20874   -4.40778   -4.39765
       O    14.03943   -4.81678   -5.24901
      H1    13.28256   -5.41547   -5.08125
       H    12.48377   -5.91104   -1.88551
       O    12.44454   -4.92017   -2.06713
      H1    13.37763   -4.71191   -2.24864
       H    13.67578   -8.61447   -4.51623
       O    13.92242   -9.04935   -3.68619
      H1    13.29252   -9.76881   -3.51172
       H    16.18900   -6.48303   -7.37440
       O    15.82507   -6.57436   -6.45091
      H1    15.42102   -5.72159   -6.16504
       H    13.01211   -7.96851   -0.87296
       O    12.70033   -7.54771   -1.72005
      H1    13.23220   -8.00906   -2.43693
       H    19.02828   -1.41461    0.40020
       O    19.24962   -2.25063   -0.09407
      H1    18.37355   -2.30674   -0.60881
       H    19.16379   -3.72956   -6.19811
       O    18.37212   -4.07534   -6.63841
      H1    17.78599   -3.44892   -6.14678
       H    17.90215   -3.47084   -1.89672
       O    17.08095   -3.01933   -1.53966
      H1    16.99532   -2.20423   -2.08392
       H    16.18856   -9.26091    1.80133
       O    16.23136   -8.38859    1.29485
      H1    16.74312   -8.56526    0.45611
       H    19.73249   -9.62134   -5.70116
       O    19.47058   -8.99535   -5.03898
      H1    18.50289   -9.10271   -4.97156
       H    15.74288   -2.97309    1.67133
       O    16.67330   -3.27262    1.45326
      H1    16.86473   -2.99501    0.49614
       H    18.01260   -0.53442   -6.91181
       O    17.77887   -1.48774   -6.69623
      H1    17.18129   -1.67621   -7.41978
       H    18.39554   -4.58146    0.66331
       O    18.82775   -5.42769    0.68882
      H1    19.58923   -5.26847    1.19664
       H    14.48119   -8.39806    0.92562
       O    13.52938   -8.27059    0.82065
      H1    13.17264   -9.21661    0.93629
       H    15.69125   -5.84036   -9.86150
       O    16.10431   -5.53151   -9.05309
      H1    16.96095   -5.28689   -9.33618
       H    18.73953   -3.70017   -8.47523
       O    18.36330   -3.80040   -9.34386
      H1    19.25963   -3.70958   -9.72113
       H    16.75199   -9.67749   -6.83985
       O    16.89447   -9.15137   -6.01763
      H1    16.33135   -8.40666   -6.08954
       H    18.81016   -7.39076   -8.41004
       O    18.42120   -7.84898   -9.27030
      H1    18.80878   -7.27704   -9.92868
       H    11.01176   -5.94816   -4.68747
       O    11.84414   -6.41642   -4.63635
      H1    12.22671   -6.09953   -3.83880
       H    15.78176  -12.02417   -1.24982
       O    16.00149  -11.33533   -0.58432
      H1    16.20382  -11.81689    0.18042
       H    13.52784   -3.57703   -6.37108
       O    13.50977   -2.91355   -7.04040
      H1    13.56182   -3.45947   -7.84281
       H    19.05777   -6.28290   -6.56069
       O    19.46119   -7.07792   -6.92093
      H1    19.41327   -7.72023   -6.15760
       H    15.87539   -5.53987   -2.47054
       O    15.26256   -4.79000   -2.54339
      H1    15.76919   -4.10501   -2.15729
       H    19.88482   -4.62233   -2.37143
       O    18.97882   -4.88649   -2.04267
      H1    19.13110   -5.19702   -1.14760
       H    18.15371   -9.46580   -1.17242
       O    18.02493   -8.57726   -0.72929
      H1    17.89659   -8.07845   -1.58183
       H    16.96124   -7.41348    2.58893
       O    17.39591   -6.70950    3.11864
      H1    18.02587   -6.25923    2.47832
       H    16.36794   -9.91062   -4.57066
       O    16.24969  -10.36488   -3.69503
      H1    15.35991  -10.05309   -3.40461
       H    15.69513   -1.55577   -4.11812
       O    16.19897   -2.18778   -4.62564
      H1    16.62425   -1.73945   -5.31125
       H    18.93317  -10.30702   -3.11833
       O    18.49833  -10.62361   -2.28106
      H1    17.55835  -10.60871   -2.58391

