90
frame 4 | Written by MDAnalysis XYZWriter (release 2.4.3)
       H     6.43184   -8.19608  -12.51589
       O     6.10103   -9.01277  -12.24093
      H1     6.90208   -9.47939  -11.91278
       H     6.54182   -5.99464  -13.05240
       O     7.22102   -6.64093  -12.78947
      H1     7.95940   -6.11485  -12.39425
       H    10.83076   -9.53974  -11.30469
       O    10.27676   -8.75563  -11.35652
      H1    10.90959   -8.09001  -11.75125
       H    10.68698   -5.88426   -9.93165
       O    10.82061   -6.18868   -9.01388
      H1    11.37060   -6.98928   -8.89336
       H     6.33011  -10.42300   -9.17424
       O     6.72220   -9.56028   -8.98931
      H1     6.23971   -8.81322   -9.34086
       H     3.36371  -10.39961   -8.92133
       O     3.43746   -9.55050   -8.48532
      H1     4.24089   -9.13359   -8.85338
       H     5.90078   -4.46964  -10.19000
       O     4.96184   -4.82273  -10.10713
      H1     4.64386   -4.48451   -9.26184
       H     5.72525  -12.67632   -9.05894
       O     6.58044  -12.66306   -8.57635
      H1     6.43545  -11.97267   -7.84410
       H     6.54675   -5.09420   -7.33439
       O     6.77475   -4.16056   -7.31379
      H1     5.92637   -3.67507   -7.20857
       H    11.51033  -12.19768   -8.74916
       O    10.61629  -12.41284   -9.04634
      H1    10.56804  -13.36623   -9.00576
       H    13.22698  -11.23724   -9.90284
       O    13.24752  -10.99597   -8.92441
      H1    14.19409  -10.81366   -8.80614
       H    12.09438  -12.12846   -4.74635
       O    11.30062  -11.57821   -4.69962
      H1    10.77370  -11.74650   -5.47709
       H     9.31137   -6.32780   -5.07835
       O     9.76967   -7.12142   -5.42291
      H1     9.62346   -7.18118   -6.31759
       H     7.04026   -3.60549   -8.91572
       O     7.27714   -3.51760   -9.84321
      H1     7.09891   -2.60637  -10.18380
       H     8.57625  -11.73138   -6.49850
       O     9.41333  -12.17689   -6.58151
      H1     9.56534  -12.07497   -7.55687
       H    12.88681   -9.32615   -8.95999
       O    12.95951   -8.39108   -8.93143
      H1    13.45279   -8.32725   -8.15099
       H     8.61495   -3.85874   -6.15419
       O     9.23855   -3.24223   -5.88870
      H1     8.96999   -2.91715   -5.03545
       H     6.90673   -7.19545   -7.31948
       O     6.04367   -6.86787   -7.14856
      H1     5.65726   -7.20419   -6.29654
       H    12.00584   -4.80602   -9.30166
       O    12.45963   -4.03318   -9.68703
      H1    13.26469   -3.80356   -9.10745
       H    11.31117  -11.59959  -10.62967
       O    11.79503  -11.13857  -11.31548
      H1    11.86745  -11.83968  -12.00660
       H     6.34637  -10.37785   -5.95678
       O     7.00059  -10.74257   -6.52302
      H1     7.15595  -10.09825   -7.32244
       H     9.24153   -0.55314   -7.67117
       O     9.33711   -1.45833   -8.01297
      H1     9.26059   -2.04230   -7.22539
       H     9.33690   -7.20145   -8.74866
       O     8.64698   -7.65674   -8.27224
      H1     8.37054   -8.43467   -8.84896
       H    11.14827   -4.62674   -5.60924
       O    11.97813   -4.94553   -5.93110
      H1    11.88024   -5.90355   -5.97149
       H     8.93732  -10.13732  -11.70079
       O     8.26018  -10.75794  -11.96413
      H1     8.52651  -11.64789  -11.74583
       H     9.75930   -4.94803  -12.11491
       O     9.26612   -5.27686  -11.31765
      H1     8.86799   -4.49420  -10.95803
       H     6.63321   -8.19944   -3.90451
       O     5.74689   -8.11262   -3.60669
      H1     5.79575   -7.84462   -2.67412
       H     5.15022   -6.66425  -10.12767
       O     5.02572   -7.63466  -10.03408
      H1     5.37113   -7.97727  -10.91909
       H     6.99476   -4.90578   -5.28354
       O     7.43311   -5.44851   -4.62420
      H1     7.24201   -5.10319   -3.74187
       H    10.23532   -9.41463   -2.73750
       O     9.44818   -8.98960   -3.13310
      H1     9.78548   -8.56367   -3.90850

