90
frame 2 | Written by MDAnalysis XYZWriter (release 2.4.3)
       H   -12.48923  -15.06866  -13.53864
       O   -11.97247  -15.37571  -14.34657
      H1   -12.34579  -16.30598  -14.40029
       H   -11.82202  -11.26709  -18.72221
       O   -12.54574  -11.27402  -19.35273
      H1   -13.12717  -10.53015  -19.13581
       H   -17.54854  -18.37062  -18.84166
       O   -18.04401  -17.82023  -18.16688
      H1   -17.78025  -16.90932  -18.41690
       H   -13.06001  -18.90520  -17.74309
       O   -13.84181  -18.31148  -17.53753
      H1   -13.59530  -17.62456  -18.12404
       H   -10.59986  -11.38033  -17.07347
       O   -10.52923  -10.49030  -17.48966
      H1    -9.60539  -10.52070  -17.80926
       H   -14.14126  -17.92456  -13.66342
       O   -13.20052  -17.92425  -13.70046
      H1   -13.05113  -17.62905  -12.74781
       H    -9.11220  -16.04432  -17.31500
       O    -8.54150  -15.54873  -16.72132
      H1    -8.92582  -14.69454  -16.71478
       H   -15.90219  -12.81222  -13.70549
       O   -15.85940  -13.22356  -12.84520
      H1   -15.11071  -13.84954  -12.96092
       H   -16.54454  -13.20747  -15.87203
       O   -15.56444  -13.38422  -15.78063
      H1   -15.73105  -14.40975  -15.69400
       H   -14.22055  -12.35161  -16.13611
       O   -13.46026  -11.85437  -16.49404
      H1   -13.04944  -11.45739  -15.70478
       H   -17.97234  -11.52439  -19.12674
       O   -17.31516  -11.21079  -18.50401
      H1   -17.62364  -11.61763  -17.69220
       H   -14.94232  -11.67030  -12.29151
       O   -14.30131  -10.98599  -11.96554
      H1   -14.73449  -10.20765  -12.35309
       H    -9.53978  -12.74557  -15.27601
       O    -9.96155  -13.00854  -16.11177
      H1   -10.78570  -13.41739  -15.84847
       H   -13.45462  -15.25203  -17.99417
       O   -13.91917  -15.63575  -18.80863
      H1   -14.60502  -14.94901  -18.90980
       H   -13.45209  -13.83040  -11.26137
       O   -13.35421  -14.53125  -11.99267
      H1   -13.34729  -15.34480  -11.51549
       H   -15.79645  -17.24020  -14.52692
       O   -15.97685  -17.65701  -13.59491
      H1   -16.15797  -18.60116  -13.87047
       H   -10.88648  -19.36826  -15.66623
       O    -9.97675  -19.13724  -15.33832
      H1   -10.12190  -18.26145  -15.04172
       H   -17.00385   -9.36059  -19.50286
       O   -17.13695   -8.40297  -19.64884
      H1   -16.29763   -8.05261  -19.38652
       H   -14.34734   -9.16106  -17.62158
       O   -14.48707   -9.95561  -18.11601
      H1   -14.08496  -10.66269  -17.58947
       H   -18.47249  -15.17174  -19.21290
       O   -17.62630  -14.87826  -18.82040
      H1   -17.03161  -14.66063  -19.51617
       H   -16.38861   -8.73205  -16.08221
       O   -17.02955   -9.41801  -16.31067
      H1   -16.57076   -9.87056  -17.04587
       H   -17.10821  -14.35664  -12.06717
       O   -17.65261  -14.97832  -11.52414
      H1   -17.67772  -14.40526  -10.69318
       H   -13.00716  -13.54697  -16.87686
       O   -12.61029  -14.47563  -16.84057
      H1   -12.89434  -14.82909  -15.94451
       H   -14.06853  -12.30752  -19.15353
       O   -14.83982  -12.94539  -19.38079
      H1   -15.64197  -12.43531  -19.03834
       H   -18.00964  -17.81546  -15.10400
       O   -18.51576  -17.03085  -14.80106
      H1   -18.20296  -16.89777  -13.90168
       H   -10.67525  -16.67861  -19.33933
       O   -10.02833  -16.88682  -18.60536
      H1    -9.64246  -17.70891  -18.87217
       H   -16.37503  -16.40008  -16.41273
       O   -15.62524  -16.12358  -15.88500
      H1   -14.99296  -16.25991  -16.58482
       H   -15.72823  -19.61738  -19.08089
       O   -16.43859  -19.28128  -19.63239
      H1   -15.96308  -18.66267  -20.21884
       H    -9.16660  -16.12903  -15.15967
       O    -9.34610  -16.56612  -14.28115
      H1   -10.09027  -16.01226  -14.08175
       H   -18.19339  -13.73587  -17.67037
       O   -18.10492  -13.12092  -16.93913
      H1   -18.99897  -13.16442  -16.58563

