90
frame 2 | Written by MDAnalysis XYZWriter (release 2.4.3)
       H     3.99462    7.50205  -13.73572
       O     4.49273    7.88160  -13.00098
      H1     4.14094    8.79157  -12.99790
       H     1.19909    3.74925   -9.20752
       O     1.28498    4.54517   -8.60597
      H1     1.10968    5.33573   -9.25822
       H     2.65191   10.05792  -12.47955
       O     3.31997   10.51691  -13.03105
      H1     3.98971   10.75541  -12.32675
       H     2.43969    1.56910   -9.63244
       O     1.75351    2.10516  -10.04678
      H1     1.21090    1.59515  -10.60336
       H    -3.19426    9.00379  -11.26834
       O    -3.28748    9.89636  -11.57186
      H1    -3.25762   10.38663  -10.70548
       H     0.05731    8.35133   -7.99358
       O    -0.67399    8.15024   -7.32388
      H1    -0.54643    8.96256   -6.74733
       H     3.83144    2.96857  -10.03795
       O     4.39003    3.20402  -10.76812
      H1     4.39648    4.15549  -10.73243
       H     0.99279    4.86851  -13.55069
       O     1.74159    5.05477  -12.94456
      H1     1.86477    4.21295  -12.48377
       H     2.30613    8.26498   -8.67108
       O     1.45649    8.19502   -9.15028
      H1     1.64497    7.51478   -9.80964
       H    -1.35236    4.70546  -10.42510
       O    -1.75212    3.90693  -10.78214
      H1    -1.91626    3.33689   -9.98926
       H     6.10993    7.70514   -6.02578
       O     6.03815    7.77531   -6.97419
      H1     6.64243    7.05911   -7.27089
       H     2.07777   11.69737  -13.44123
       O     1.29302   12.19340  -13.78146
      H1     1.45449   12.37178  -14.68745
       H     0.28941    9.82817  -12.20781
       O     1.00026   10.02088  -11.59216
      H1     0.86716    9.40999  -10.86487
       H     1.22933    8.21832  -14.92715
       O     2.11223    8.44286  -14.75283
      H1     2.09148    9.29827  -15.17326
       H     3.97788   11.01294  -10.46569
       O     4.67354   10.37804  -10.71430
      H1     5.44260   10.87254  -10.43467
       H     4.83529    8.64839   -7.97531
       O     3.89856    8.91922   -8.18832
      H1     4.13658    9.42272   -8.97796
       H     6.07248    8.17718  -12.45007
       O     6.84993    8.44951  -11.96502
      H1     6.44949    8.45362  -11.08576
       H    -0.31000   11.26192  -13.87252
       O    -0.83960   10.50409  -13.50760
      H1    -1.66358   10.91350  -13.23198
       H     0.72351   11.73143  -10.83741
       O     0.44761   12.57024  -10.38233
      H1    -0.42426   12.62474  -10.74040
       H    -0.33254    4.30865   -7.65218
       O    -0.76485    3.54998   -7.24564
      H1    -0.63476    3.86753   -6.27672
       H     0.03159    6.17131   -5.19891
       O     0.82434    6.63371   -5.41659
      H1     0.48219    7.10557   -6.18473
       H    -1.00545    8.05497  -15.59249
       O    -0.59301    7.75237  -14.77679
      H1    -1.01783    8.31960  -14.13943
       H     5.29572    6.34432  -11.68044
       O     5.81225    5.56685  -11.42819
      H1     6.56072    5.53927  -12.11606
       H    -2.11304    7.65905   -8.17804
       O    -2.93055    7.29762   -8.57076
      H1    -3.47258    8.11774   -8.63776
       H    -0.75208    6.82214  -10.69209
       O    -1.00571    6.33292   -9.94301
      H1    -1.87275    6.63876   -9.57955
       H     1.31354    6.58383  -12.38325
       O     0.86180    7.33679  -11.89775
      H1     1.25776    8.06244  -12.34825
       H     2.43150   11.86384   -5.94996
       O     2.92998   11.48331   -6.67604
      H1     3.07570   10.61367   -6.38449
       H     3.17746    8.08193   -6.18826
       O     3.16815    8.68890   -5.41968
      H1     2.52477    8.22445   -4.85290
       H     0.12931   11.17927   -6.72202
       O    -0.04862   10.49326   -6.04716
      H1    -0.84972   10.89200   -5.64570
       H     2.26307    5.12810   -5.79265
       O     2.46272    4.22844   -6.12759
      H1     1.96615    4.19380   -6.95465

