90
frame 0 | Written by MDAnalysis XYZWriter (release 2.4.3)
       H   -13.18292    6.90435   14.51152
       O   -12.64234    6.59382   15.21758
      H1   -12.01998    7.35077   15.35960
       H    -9.21557    6.89027   14.24595
       O    -9.27839    7.46160   13.42593
      H1    -8.39264    7.87241   13.44290
       H    -8.13840   14.66698   14.54231
       O    -9.05107   14.72161   14.25460
      H1    -8.96071   13.97803   13.65150
       H   -13.38093    9.00154   12.63864
       O   -13.48951    9.96892   12.64331
      H1   -12.59424   10.16909   12.96753
       H   -10.26069    4.70283   15.29467
       O   -10.63346    4.73991   14.40590
      H1   -11.25604    5.48434   14.53528
       H   -15.30672    7.55780   13.44503
       O   -14.59775    6.96802   13.12815
      H1   -14.83044    7.01679   12.24455
       H    -9.55972   12.37988    9.16662
       O    -9.13968   11.55244    8.87861
      H1    -9.88151   10.98553    8.93497
       H   -11.06854   13.77131   10.13608
       O   -10.73635   13.67589    9.26136
      H1   -11.48688   13.54151    8.70499
       H    -8.37387   12.14252   12.26978
       O    -9.01930   12.35682   12.95511
      H1    -9.57742   11.48803   12.86640
       H    -5.99855   10.38935   17.38101
       O    -6.20681    9.61500   16.80971
      H1    -6.48976   10.05792   15.95002
       H    -6.24243    7.07972   13.90057
       O    -6.00398    7.64727   14.64340
      H1    -6.69055    7.52130   15.32790
       H   -15.22265    9.70481   14.17291
       O   -15.98662    9.09711   14.08885
      H1   -16.43836    9.57638   13.35763
       H   -13.42098    8.89069   17.90425
       O   -12.56984    9.40341   17.96110
      H1   -12.06080    8.73942   18.49627
       H   -12.25719   11.10556    9.30990
       O   -11.72087   10.39764    8.89068
      H1   -12.03871   10.21324    8.00195
       H   -10.51422   10.03161   14.01092
       O   -10.82057   10.49699   13.23187
      H1   -10.70458    9.82006   12.56176
       H    -8.87293   10.29126   17.23600
       O    -8.70221    9.42478   17.63047
      H1    -7.70921    9.39326   17.65570
       H   -11.55131    7.63707   10.75723
       O   -11.44669    8.49601   11.26198
      H1   -11.31427    9.13799   10.52940
       H    -7.08270   12.83062   15.63377
       O    -7.52249   11.95315   15.46043
      H1    -7.92776   12.20328   14.58137
       H   -10.40044    7.16900   18.79242
       O   -10.27314    7.92888   19.35595
      H1    -9.60892    8.41278   18.76630
       H    -9.26075    6.91255   11.67109
       O    -8.93010    6.43037   10.90635
      H1    -8.91490    5.51164   11.31633
       H    -7.99135   11.34181   10.17258
       O    -7.42065   11.38574   10.97395
      H1    -6.59982   11.88223   10.68639
       H   -11.77947   14.59173   16.03251
       O   -11.04618   15.21035   16.01073
      H1   -10.48267   14.77401   15.34296
       H   -10.82701   12.96505   12.25156
       O   -11.64038   13.40411   11.95688
      H1   -12.20779   12.60118   11.82482
       H   -15.42413   12.10919   12.71260
       O   -15.08470   12.33842   13.58449
      H1   -15.90981   12.22941   14.06668
       H   -13.21263    5.78584   18.28425
       O   -13.74205    6.28900   17.61922
      H1   -13.32075    6.32946   16.77443
       H    -6.36043    7.67597   11.84686
       O    -6.53244    6.73410   12.03789
      H1    -7.36589    6.59803   11.57244
       H   -10.02708    8.91915   16.12257
       O   -10.91833    9.09099   15.77032
      H1   -11.54137    9.17630   16.56465
       H   -13.55491   11.08406   11.50595
       O   -13.43679   11.64043   10.68109
      H1   -14.28315   12.02618   10.57823
       H    -8.56392    6.49673   17.02394
       O    -8.69772    7.14701   16.28566
      H1    -8.68586    7.96882   16.78845
       H   -13.52314    9.79353    9.71061
       O   -14.07653    9.02221    9.42107
      H1   -13.30244    8.37764    9.19675

