90
frame 2 | Written by MDAnalysis XYZWriter (release 2.4.3)
       H     3.23469  -18.65428   -2.03015
       O     3.59466  -19.51987   -2.21786
      H1     3.37750  -19.91844   -1.30028
       H     5.75037  -14.09187   -3.68605
       O     4.78836  -13.95436   -3.32411
      H1     4.48781  -13.37109   -4.05959
       H     0.82427  -13.11102   -3.82948
       O     1.70843  -13.36458   -3.49973
      H1     1.59613  -14.25649   -3.12425
       H     2.42474  -18.96529   -4.93719
       O     1.69887  -19.61097   -4.87247
      H1     1.15160  -19.44960   -5.63301
       H    -1.13366  -17.05119   -3.54948
       O    -0.72510  -16.19868   -3.83867
      H1    -1.29758  -15.52273   -3.48994
       H     4.04647  -20.02493    4.56534
       O     3.70465  -19.44578    5.33427
      H1     4.46837  -19.26710    5.93686
       H     9.99667  -16.71094    0.07861
       O     9.43258  -16.48631    0.84177
      H1     9.60278  -15.52207    0.97079
       H     7.60382  -15.48392   -3.01449
       O     7.46377  -14.83964   -3.72248
      H1     7.01315  -15.44925   -4.33839
       H     0.80771  -17.98809   -2.43476
       O     1.56373  -17.50852   -2.18268
      H1     1.83148  -17.05202   -3.05970
       H     2.22144  -16.11525   -1.22135
       O     3.04276  -15.51292   -1.20055
      H1     2.57844  -14.75811   -0.84727
       H     8.85233  -18.08854    1.99419
       O     8.11047  -18.72967    2.00084
      H1     7.69174  -18.48851    1.14867
       H     5.75529  -17.32336   -1.66167
       O     5.31341  -16.94906   -2.44903
      H1     4.67021  -16.45912   -1.95881
       H     3.78311  -17.92715    4.41888
       O     3.89853  -16.95978    4.27542
      H1     3.78285  -16.69568    5.20374
       H    -2.25127  -19.33723    1.25051
       O    -2.68423  -18.92942    1.98408
      H1    -1.93856  -18.87459    2.67568
       H     2.41195  -14.10682   -6.81042
       O     2.01928  -14.97368   -6.73248
      H1     1.00836  -14.85928   -6.79067
       H     8.70489  -18.64966   -3.34853
       O     8.77630  -18.93412   -2.41516
      H1     9.05291  -19.84126   -2.55517
       H     4.80081  -15.87388    0.91055
       O     5.01251  -16.03023    1.83872
      H1     4.23446  -16.43678    2.22382
       H     3.67326  -15.42624   -4.01291
       O     3.13500  -16.11634   -4.45923
      H1     2.66660  -15.64951   -5.15525
       H     6.22868  -14.68946    4.45003
       O     6.45269  -14.30061    3.56120
      H1     5.86635  -14.81322    3.01064
       H    -0.75012  -16.78230    0.03171
       O    -0.04438  -16.23057    0.32577
      H1     0.52366  -16.79260    0.83369
       H     5.94601  -17.07838    3.60948
       O     6.71359  -17.36123    4.08994
      H1     7.16015  -17.88816    3.43739
       H     1.15630  -13.31467    0.25818
       O     1.00277  -13.61444   -0.66986
      H1     0.63441  -14.52407   -0.37415
       H    -2.88544  -17.33880    1.19393
       O    -2.85881  -16.68177    0.44761
      H1    -2.64425  -15.81759    0.90640
       H     2.39904  -17.91730    2.30500
       O     1.46237  -17.57432    2.32866
      H1     1.35804  -17.43440    3.28082
       H     6.24873  -17.20569   -6.26289
       O     6.03849  -16.46325   -5.68682
      H1     5.16509  -16.73960   -5.35273
       H    -0.51154  -18.60410   -7.36768
       O    -0.18597  -19.45426   -6.90269
      H1     0.26286  -19.83879   -7.70433
       H    -1.93758  -19.33665   -4.11998
       O    -1.13507  -19.08971   -3.61966
      H1    -0.41922  -19.27428   -4.23996
       H     4.78257  -19.37128   -3.67661
       O     5.16873  -18.99289   -4.51592
      H1     5.43194  -18.12500   -4.07419
       H     7.35683  -18.52026   -1.14872
       O     6.79606  -18.24862   -0.40237
      H1     6.24513  -19.05146   -0.23283
       H    10.07862  -18.66299   -1.24621
       O    10.90472  -18.43923   -0.76461
      H1    11.41940  -18.03750   -1.49840

