90
frame 2 | Written by MDAnalysis XYZWriter (release 2.4.3)
       H    -3.92690  -12.78400  -15.85205
       O    -4.69427  -13.22758  -16.25870
      H1    -5.22256  -12.48727  -16.57529
       H    -5.60396  -13.46772  -14.79335
       O    -5.87225  -13.66541  -13.86524
      H1    -6.73273  -13.16320  -13.88912
       H   -12.48923  -15.06866  -13.53864
       O   -11.97247  -15.37571  -14.34657
      H1   -12.34579  -16.30598  -14.40029
       H    -8.21402  -11.64093  -13.63476
       O    -8.03045  -12.36411  -14.29449
      H1    -7.82797  -11.91531  -15.12704
       H    -5.70188  -18.06633  -10.92113
       O    -5.96334  -18.68010  -10.24919
      H1    -5.12222  -19.01791   -9.88842
       H   -10.56413  -17.52286   -9.67742
       O    -9.91321  -16.89495  -10.05043
      H1   -10.28092  -16.10025   -9.61162
       H    -6.04851  -18.16149  -16.05138
       O    -5.10986  -18.03017  -16.14931
      H1    -4.80164  -18.04490  -15.21868
       H   -14.14126  -17.92456  -13.66342
       O   -13.20052  -17.92425  -13.70046
      H1   -13.05113  -17.62905  -12.74781
       H    -9.11220  -16.04432  -17.31500
       O    -8.54150  -15.54873  -16.72132
      H1    -8.92582  -14.69454  -16.71478
       H    -6.81802  -10.43021  -13.78777
       O    -7.34091   -9.87544  -13.18760
      H1    -6.76774   -9.07913  -13.02276
       H    -6.39208  -14.65135   -8.25764
       O    -7.28190  -14.37375   -8.02358
      H1    -7.23953  -13.38956   -7.81970
       H    -4.10701  -15.43994  -13.34051
       O    -3.39860  -15.83880  -13.83643
      H1    -3.40520  -16.68026  -13.41730
       H   -10.51655  -12.00562  -12.62940
       O   -10.41826  -11.30673  -13.32964
      H1   -10.74053  -10.49738  -12.83395
       H    -9.53978  -12.74557  -15.27601
       O    -9.96155  -13.00854  -16.11177
      H1   -10.78570  -13.41739  -15.84847
       H    -5.22269  -13.45411  -11.32363
       O    -4.29487  -13.15820  -11.00502
      H1    -3.87734  -13.25469  -11.89146
       H    -7.11560  -14.94781  -12.98687
       O    -7.89433  -15.15596  -12.42489
      H1    -8.37079  -15.73159  -13.04844
       H    -7.34321  -14.23578  -11.11701
       O    -6.95321  -13.63412  -10.47183
      H1    -7.38002  -13.91957   -9.65323
       H   -13.45209  -13.83040  -11.26137
       O   -13.35421  -14.53125  -11.99267
      H1   -13.34729  -15.34480  -11.51549
       H    -8.42380  -17.15010   -9.02963
       O    -7.77262  -17.66145   -8.57482
      H1    -7.11425  -17.79904   -9.28392
       H   -10.88648  -19.36826  -15.66623
       O    -9.97675  -19.13724  -15.33832
      H1   -10.12190  -18.26145  -15.04172
       H    -4.54042  -14.73298  -17.14060
       O    -4.34261  -15.67639  -17.39322
      H1    -4.61035  -16.19817  -16.59209
       H    -8.13614  -10.71194  -11.46520
       O    -8.39458  -11.25789  -10.68194
      H1    -7.65367  -11.87283  -10.64207
       H    -6.14859  -10.54665  -16.41658
       O    -6.81920  -11.32137  -16.35147
      H1    -7.19031  -11.46962  -17.21025
       H    -9.41369  -12.67851  -11.05164
       O   -10.00387  -13.37056  -11.36350
      H1    -9.35259  -13.96478  -11.72121
       H   -14.40987  -16.99971  -10.78236
       O   -13.54724  -17.05017  -11.17786
      H1   -13.08782  -17.79149  -10.75709
       H   -13.00716  -13.54697  -16.87686
       O   -12.61029  -14.47563  -16.84057
      H1   -12.89434  -14.82909  -15.94451
       H    -8.80659  -17.78347  -12.65343
       O    -8.66747  -18.51056  -12.03238
      H1    -8.84894  -17.97070  -11.25384
       H    -4.19894  -15.47256   -8.63287
       O    -4.44425  -14.54657   -8.64094
      H1    -4.37347  -14.37171   -9.60151
       H    -9.79460  -14.49784   -8.19573
       O   -10.46919  -14.41825   -8.86583
      H1   -10.00550  -14.01165   -9.61180
       H    -9.16660  -16.12903  -15.15967
       O    -9.34610  -16.56612  -14.28115
      H1   -10.09027  -16.01226  -14.08175

