90
frame 2 | Written by MDAnalysis XYZWriter (release 2.4.3)
       H    -5.72743   -8.33685  -10.59257
       O    -5.97165   -8.55445   -9.69815
      H1    -5.43140   -7.89026   -9.15990
       H    -6.83062   -9.19332   -5.64305
       O    -7.67275   -8.82041   -5.35603
      H1    -7.53869   -7.90156   -5.08264
       H   -10.15594   -7.91258   -9.58480
       O   -11.10800   -7.72160   -9.84417
      H1   -11.15198   -6.79580  -10.14152
       H    -0.89217  -11.05916   -8.33866
       O    -1.57491  -11.19536   -9.02048
      H1    -2.05818  -11.97060   -8.67244
       H   -12.62069  -12.44833   -9.16465
       O   -13.21394  -13.14437   -9.37319
      H1   -12.55944  -13.90329   -9.22929
       H    -9.75979   -6.95498   -7.74273
       O    -9.58210   -6.19419   -7.18659
      H1    -9.61109   -6.63204   -6.28321
       H   -10.56413  -17.52286   -9.67742
       O    -9.91321  -16.89495  -10.05043
      H1   -10.28092  -16.10025   -9.61162
       H    -9.01572   -9.48050   -6.51541
       O    -9.68799   -9.86173   -7.15233
      H1    -9.80499  -10.74777   -6.68897
       H    -6.39208  -14.65135   -8.25764
       O    -7.28190  -14.37375   -8.02358
      H1    -7.23953  -13.38956   -7.81970
       H    -6.53095  -13.00939   -4.72247
       O    -6.79877  -12.13732   -5.11756
      H1    -6.68176  -11.48201   -4.39618
       H    -8.41219  -14.93942   -6.61375
       O    -9.33037  -15.08326   -6.23334
      H1    -9.59567  -14.12271   -6.14309
       H   -12.39760  -10.56888   -7.67794
       O   -11.93486  -10.86324   -8.49116
      H1   -11.12680  -10.38499   -8.30653
       H    -4.88273  -11.94608  -10.07034
       O    -5.19220  -11.23861   -9.39730
      H1    -5.28825  -10.47684   -9.91714
       H    -6.57341  -11.48375   -8.34090
       O    -7.41521  -11.77541   -7.90958
      H1    -7.38555  -11.49114   -6.98418
       H    -5.22269  -13.45411  -11.32363
       O    -4.29487  -13.15820  -11.00502
      H1    -3.87734  -13.25469  -11.89146
       H   -10.58619  -12.61244   -5.21853
       O   -10.23659  -12.38495   -6.07467
      H1   -10.93900  -12.60155   -6.71459
       H    -4.84618   -8.71049   -6.95710
       O    -5.20446   -9.59324   -6.88376
      H1    -5.20029   -9.93276   -7.79663
       H    -7.34321  -14.23578  -11.11701
       O    -6.95321  -13.63412  -10.47183
      H1    -7.38002  -13.91957   -9.65323
       H   -11.40496   -7.78892   -5.11666
       O   -10.48573   -7.78240   -4.79868
      H1   -10.13285   -8.52643   -5.26989
       H    -8.42380  -17.15010   -9.02963
       O    -7.77262  -17.66145   -8.57482
      H1    -7.11425  -17.79904   -9.28392
       H    -2.97019  -12.61085   -6.75279
       O    -2.43461  -13.15189   -7.34127
      H1    -3.13359  -13.71081   -7.64151
       H    -8.13614  -10.71194  -11.46520
       O    -8.39458  -11.25789  -10.68194
      H1    -7.65367  -11.87283  -10.64207
       H    -8.51753   -9.44180   -9.68959
       O    -8.50938   -8.47110   -9.77658
      H1    -7.53324   -8.32329   -9.77286
       H    -9.41369  -12.67851  -11.05164
       O   -10.00387  -13.37056  -11.36350
      H1    -9.35259  -13.96478  -11.72121
       H    -4.69419  -12.24292   -5.41207
       O    -3.94114  -11.66865   -5.66975
      H1    -4.30213  -10.89819   -6.16702
       H    -4.30338  -10.05600   -3.02320
       O    -4.27116   -9.67528   -3.90967
      H1    -3.69502  -10.24762   -4.45043
       H    -7.32605  -17.30198   -6.91801
       O    -6.75374  -17.22423   -6.09999
      H1    -6.83943  -16.22341   -5.97368
       H    -4.19894  -15.47256   -8.63287
       O    -4.44425  -14.54657   -8.64094
      H1    -4.37347  -14.37171   -9.60151
       H    -9.79460  -14.49784   -8.19573
       O   -10.46919  -14.41825   -8.86583
      H1   -10.00550  -14.01165   -9.61180
       H    -5.31772  -15.32254   -4.84737
       O    -6.27028  -14.99108   -4.73673
      H1    -6.41433  -15.28485   -3.79744

