90
frame 2 | Written by MDAnalysis XYZWriter (release 2.4.3)
       H    -0.35107   18.49562  -13.86867
       O    -0.31010   19.24296  -13.35771
      H1     0.63948   19.35834  -13.40057
       H     3.49957   16.26571  -17.49668
       O     3.96035   16.87490  -18.09102
      H1     3.45608   16.88415  -18.90210
       H    -2.84965   17.67922  -12.42379
       O    -3.68225   17.82193  -12.90925
      H1    -3.54845   17.21768  -13.67183
       H    -1.36999   16.60324  -14.77329
       O    -0.49422   16.91117  -14.97539
      H1    -0.00641   16.51044  -14.24590
       H    -4.01350   17.28222  -19.40662
       O    -5.01850   17.18673  -19.34507
      H1    -5.16916   17.66842  -18.49041
       H    -8.63123   19.11706  -18.95443
       O    -9.00477   19.79991  -19.47897
      H1    -9.87101   19.42021  -19.57928
       H    -3.46877   18.26532  -17.04022
       O    -4.36250   18.13310  -16.60646
      H1    -4.58969   19.06433  -16.45666
       H     1.99027   16.28433  -11.61440
       O     1.95927   17.22502  -11.38577
      H1     1.98535   17.66554  -12.28071
       H    -1.63956   18.36442  -18.36153
       O    -2.21461   19.06622  -18.10610
      H1    -1.84028   19.27819  -17.22048
       H    -3.59050   15.47927  -12.87611
       O    -3.84779   14.65810  -12.49726
      H1    -4.30184   14.33432  -13.29686
       H     1.06001   12.90474  -17.33425
       O     0.91181   13.83176  -17.00330
      H1     1.71489   14.10485  -16.60099
       H    -5.44065   11.96480  -18.75553
       O    -5.71722   12.67363  -19.43822
      H1    -6.65334   12.41212  -19.61407
       H     2.95776   18.38648  -17.71849
       O     2.26836   18.98564  -17.41096
      H1     1.51312   18.36306  -17.57889
       H    -8.44820   19.49018  -15.61916
       O    -7.49828   19.25694  -15.73866
      H1    -7.41546   18.71127  -14.99175
       H    -8.20372   14.36066  -12.87063
       O    -7.78650   14.30637  -13.75204
      H1    -7.67268   15.27820  -13.86757
       H    -8.21301   17.95450  -16.94934
       O    -8.39276   17.53054  -17.78099
      H1    -8.27327   16.60463  -17.49709
       H     0.97052   15.07703  -18.42603
       O     0.65167   15.67198  -19.19073
      H1    -0.32112   15.42307  -19.15233
       H    -3.90811   12.75282  -14.54363
       O    -4.11160   13.52737  -15.06531
      H1    -4.52214   13.14941  -15.92017
       H     1.15116   13.96539  -11.36002
       O     1.54904   14.56667  -12.01355
      H1     1.76495   13.90138  -12.67429
       H    -0.67825   16.92956  -10.32659
       O    -1.52504   17.36041  -10.61074
      H1    -2.21620   17.13084   -9.97032
       H    -8.14515   14.15245  -16.69881
       O    -8.20839   14.71968  -17.48225
      H1    -7.25445   14.80574  -17.78879
       H     3.08065   18.25005  -14.48426
       O     2.49541   18.43963  -13.77304
      H1     2.95465   19.24003  -13.50917
       H     3.78168   14.66748  -15.51628
       O     3.10456   15.29090  -15.82847
      H1     3.48272   16.19594  -15.61903
       H     5.52113   16.93907  -15.33599
       O     4.84803   17.38979  -14.83534
      H1     5.40284   18.06975  -14.37229
       H    -7.12154   17.44522  -13.00895
       O    -7.72151   17.21147  -13.78888
      H1    -8.63697   17.17749  -13.40137
       H    -3.73990   15.38785  -15.14170
       O    -3.25149   16.18117  -14.89582
      H1    -3.76506   16.78576  -15.43913
       H    -2.67447   14.68503  -17.45216
       O    -1.73524   14.83481  -17.62425
      H1    -1.26263   14.06787  -17.18115
       H    -5.65986   15.73410  -18.33134
       O    -5.41369   14.94400  -17.76536
      H1    -5.67209   14.18360  -18.25060
       H     0.22786   16.87910  -18.20744
       O    -0.14941   17.63520  -17.68666
      H1    -0.39042   17.21432  -16.82440
       H    -6.17642   18.68656  -11.30313
       O    -6.31144   17.75329  -11.60382
      H1    -5.37052   17.56200  -11.91187

