90
frame 2 | Written by MDAnalysis XYZWriter (release 2.4.3)
       H    -0.04210   -4.14215    6.37567
       O     0.43464   -4.97221    6.05829
      H1     1.02189   -5.22828    6.79173
       H    -2.97809   -3.27120    9.78161
       O    -3.94496   -3.36737    9.82675
      H1    -3.97512   -3.25352    8.87506
       H     0.23828   -9.74635   10.00506
       O     0.53763   -9.21726   10.81098
      H1     0.76432   -9.94576   11.40927
       H    -2.28970   -8.15998    5.89174
       O    -2.50364   -8.21146    4.94532
      H1    -1.96648   -7.44828    4.63271
       H    -1.98274   -4.45363   11.68694
       O    -1.23729   -3.83607   11.52139
      H1    -0.92924   -4.38179   10.72457
       H    -1.00531   -0.56100    7.83605
       O    -1.34332   -1.21354    8.50978
      H1    -1.56410   -0.60260    9.22584
       H     1.37584    0.12417   11.41317
       O     2.02746   -0.65843   11.36439
      H1     1.63196   -1.26622   10.66646
       H    -0.10362   -6.85409    3.76578
       O    -0.82313   -6.30823    4.04846
      H1    -0.43271   -6.06574    4.92647
       H    -0.65451   -6.21245    7.10353
       O    -1.40388   -6.76508    7.42183
      H1    -2.06338   -6.03815    7.52623
       H     1.80943   -8.72491    7.28750
       O     1.05267   -8.42550    6.78398
      H1     1.47292   -8.27353    5.93471
       H    -2.33250   -9.23514    8.85952
       O    -3.04136   -9.08208    9.50482
      H1    -2.77499   -8.29711   10.02599
       H    -0.65750  -10.41739    7.84920
       O    -1.23963   -9.74837    7.46859
      H1    -0.55648   -9.12749    7.13239
       H     0.14142   -3.06950   13.94128
       O    -0.81487   -3.33139   14.16810
      H1    -1.16481   -3.55128   13.27326
       H     0.62663   -7.09701   12.32056
       O     1.48685   -6.96698   11.88646
      H1     1.52517   -7.62791   11.18034
       H     3.33515   -7.30600   13.26485
       O     4.00683   -7.96558   13.41835
      H1     3.74445   -8.64337   12.80779
       H     2.74783   -6.36821    8.21600
       O     1.86251   -6.08869    7.92929
      H1     1.55061   -6.89438    7.43364
       H     1.79687   -3.28042   12.40074
       O     1.66810   -2.66596   13.18680
      H1     1.74625   -1.84694   12.63025
       H     0.06442   -2.30794    8.78447
       O     0.91219   -2.70991    9.05297
      H1     1.41458   -2.61155    8.20316
       H     0.55413   -5.71780    9.68688
       O    -0.32026   -6.03310    9.88968
      H1    -0.55087   -6.42605    9.03256
       H     0.51459   -6.04214   14.60655
       O    -0.43021   -5.97348   14.44749
      H1    -0.64213   -5.02400   14.53158
       H    -3.04489   -8.70742   12.98379
       O    -3.75326   -9.22021   13.38183
      H1    -3.45876   -9.21625   14.34596
       H    -5.10341   -5.88316    7.84080
       O    -4.84715   -5.25335    7.15923
      H1    -5.73607   -4.87851    6.98076
       H    -3.31877   -4.11754    7.13281
       O    -2.36752   -4.01576    7.46795
      H1    -2.10535   -3.24917    6.94386
       H    -5.56797   -7.44624    9.43743
       O    -5.70537   -6.46715    9.33998
      H1    -5.04715   -5.99723    9.85183
       H    -3.30258   -5.26137   13.30823
       O    -3.53397   -4.83031   12.52585
      H1    -4.50662   -4.87768   12.64216
       H     3.38612   -3.61945    9.06564
       O     4.28806   -3.87447    8.85326
      H1     4.75534   -3.35348    9.52537
       H     1.84508   -5.34318   11.31939
       O     2.10303   -4.47184   10.97435
      H1     1.28000   -4.20101   10.57256
       H     4.38780   -5.24905   11.02845
       O     5.11643   -5.64447   11.49338
      H1     4.90690   -5.25384   12.35639
       H    -1.54078   -6.84222   11.25086
       O    -2.36636   -7.05995   11.64879
      H1    -2.76888   -6.14833   11.65500
       H     2.16436   -8.52356    9.75298
       O     2.69409   -8.56654    8.94908
      H1     3.57153   -8.34061    9.21749

