90
frame 2 | Written by MDAnalysis XYZWriter (release 2.4.3)
       H    10.14423   12.83195  -17.41519
       O    10.43780   13.12421  -16.55968
      H1    11.30406   12.60867  -16.50721
       H    15.23422   17.31245  -14.20507
       O    14.98961   17.01277  -13.29625
      H1    14.05138   16.60274  -13.46848
       H    10.34607   16.13980  -16.19924
       O    10.88543   15.72089  -16.90126
      H1    10.76631   14.74862  -16.60164
       H    19.01737   15.95030  -17.10160
       O    19.72622   16.27243  -16.54621
      H1    19.48155   17.21168  -16.41350
       H    15.56793   11.48860  -12.80137
       O    16.18267   12.00854  -13.38169
      H1    16.21243   11.43070  -14.21287
       H    17.72384   14.60816  -18.32686
       O    17.45299   15.45669  -17.94247
      H1    17.07010   15.20739  -17.10439
       H    12.60116   15.91401  -16.41617
       O    13.43688   16.14631  -15.93615
      H1    14.02724   15.46620  -16.26183
       H    10.56128    9.76822  -17.23631
       O    10.61505    9.37992  -18.11818
      H1    10.46540   10.19602  -18.67537
       H    11.98634   15.09794  -12.36766
       O    11.31178   14.43442  -12.04234
      H1    10.40128   14.81338  -12.16026
       H    13.19229    8.49723  -19.10781
       O    13.15522    7.88311  -19.90142
      H1    13.52791    7.06435  -19.51430
       H    15.39549    9.84863  -15.69669
       O    15.91607   10.60462  -16.04741
      H1    16.44123   10.19055  -16.76580
       H     7.65763   12.56428  -15.17649
       O     7.91334   12.99461  -16.02284
      H1     8.90871   13.03951  -15.96162
       H    16.99778   12.95113  -15.45846
       O    16.65050   13.85118  -15.69500
      H1    15.93100   13.54657  -16.32699
       H    14.55363    7.85057  -14.03640
       O    13.78032    8.45507  -14.15396
      H1    13.62937    8.82894  -13.23426
       H    16.79730    9.16334  -18.84713
       O    17.35887    8.77002  -18.12901
      H1    17.92352    8.22207  -18.71403
       H    13.78072   12.98457  -17.05274
       O    14.42668   13.74521  -17.12718
      H1    14.68215   13.69288  -18.07876
       H    12.52233   16.31360  -14.55833
       O    12.20689   16.45949  -13.68390
      H1    11.73622   17.30534  -13.75221
       H    15.42854   13.67692  -13.31498
       O    14.70862   14.28940  -13.19087
      H1    15.07083   15.13275  -13.29263
       H    18.44155   16.21282  -14.32969
       O    18.62528   16.48281  -13.44867
      H1    17.90386   16.01233  -13.02262
       H     9.94665   16.30297  -18.25224
       O     9.45013   16.90353  -18.83720
      H1     9.95503   16.80059  -19.62231
       H    10.52035    9.04028  -14.72903
       O    10.17482    9.60964  -15.48625
      H1    10.25461   10.51659  -15.19270
       H    12.29922    8.90933  -17.53467
       O    13.24484    9.12942  -17.57171
      H1    13.74470    8.33022  -17.34682
       H    18.07235   12.31333  -12.50920
       O    18.88026   11.90598  -12.13315
      H1    18.75483   10.97242  -12.16596
       H    16.29605   18.37592  -16.58834
       O    16.77241   18.08069  -15.76836
      H1    17.61769   18.47138  -15.91510
       H    18.78310   11.89462  -17.53639
       O    19.16952   11.46210  -16.78183
      H1    19.39486   12.28710  -16.32331
       H    12.32785   11.34164  -12.87510
       O    12.35036   10.51724  -12.30972
      H1    11.56473   10.72160  -11.67727
       H    14.12446   17.61218  -18.30612
       O    14.43723   18.03718  -17.52360
      H1    14.33757   17.40514  -16.78972
       H    12.86339   10.82815  -16.93738
       O    12.65162   11.75280  -17.27670
      H1    12.83440   11.71100  -18.25702
       H    11.30890   18.65423  -17.54971
       O    12.02880   18.94705  -16.99619
      H1    12.84690   18.47118  -17.35091
       H    13.11289   12.93155  -14.28560
       O    12.20133   12.81060  -14.55619
      H1    11.79192   13.51341  -13.99197

