90
frame 2 | Written by MDAnalysis XYZWriter (release 2.4.3)
       H     7.46086  -17.39919  -10.77263
       O     8.37146  -17.70934  -10.79570
      H1     8.97501  -17.08754  -10.27016
       H     6.56425  -19.60615  -13.36825
       O     5.64404  -19.46894  -13.25480
      H1     5.38857  -18.62226  -13.71277
       H     2.48245  -15.80751   -9.88967
       O     1.71945  -15.90789   -9.31909
      H1     1.94601  -15.53787   -8.45100
       H     5.00455  -17.85273  -16.28419
       O     4.77799  -17.96480  -15.33179
      H1     4.66504  -17.07493  -15.02949
       H     5.70292  -17.39619   -9.48253
       O     5.60031  -17.58433  -10.38318
      H1     4.99750  -16.86351  -10.60413
       H     3.87181  -14.88016  -14.47485
       O     4.54929  -15.47378  -14.07839
      H1     5.32813  -14.86211  -14.07107
       H     2.35060  -13.45988  -12.22101
       O     3.23897  -13.16776  -12.42912
      H1     3.17023  -12.89858  -13.35586
       H     8.31385  -14.83216   -8.12908
       O     9.30709  -14.76503   -8.01505
      H1     9.37246  -14.75708   -7.07406
       H     8.31934  -17.41769  -13.77553
       O     7.63632  -16.79227  -13.84160
      H1     7.01458  -17.29163  -14.32840
       H     4.27987  -15.02352  -11.78579
       O     3.91978  -15.73538  -11.26638
      H1     3.56673  -16.24960  -12.01571
       H    11.31376  -15.80749  -11.17841
       O    11.48743  -15.54333  -12.10388
      H1    12.41341  -15.30239  -12.06747
       H     1.22645  -16.11205  -14.18545
       O     0.65761  -15.88669  -13.42111
      H1     0.76480  -14.90930  -13.30710
       H    12.11012  -17.13165  -12.82145
       O    12.78421  -17.83609  -12.93133
      H1    13.37902  -17.39856  -13.52298
       H     6.62155  -14.39447  -12.09075
       O     7.01472  -14.17427  -12.99530
      H1     7.34473  -15.01720  -13.25840
       H     7.99764  -19.89963  -17.90878
       O     8.18649  -19.46132  -17.08857
      H1     9.01984  -18.96807  -17.27370
       H    11.15902  -16.95085   -9.05787
       O    10.77883  -16.34286   -9.67008
      H1    10.20813  -15.81991   -9.01731
       H     3.03826  -18.44540  -17.93479
       O     3.25470  -17.81878  -18.63041
      H1     3.49130  -17.09291  -18.09264
       H     1.52973  -18.92594  -15.96854
       O     1.57376  -17.98656  -15.79730
      H1     0.61120  -17.85604  -15.55017
       H     2.23768  -18.49390  -11.60022
       O     3.12738  -18.69334  -11.88540
      H1     3.69159  -18.74161  -11.13503
       H     8.66393  -14.07464  -15.45867
       O     8.03226  -14.77880  -15.72167
      H1     7.97530  -15.26780  -14.87606
       H     0.21167  -19.03250  -11.48422
       O     0.42500  -18.33896  -10.88939
      H1     0.15038  -17.54500  -11.35164
       H     6.71349  -13.82084  -15.97398
       O     5.82482  -13.38456  -16.03452
      H1     5.98054  -12.45058  -15.73117
       H     2.11548  -13.63380  -15.51245
       O     2.94176  -13.31034  -15.08438
      H1     3.62421  -13.51230  -15.72416
       H    11.88014  -19.68267   -7.53324
       O    11.84475  -18.87655   -8.08403
      H1    12.02623  -19.19903   -8.94942
       H     8.06892  -16.05374  -19.19377
       O     8.45816  -15.46093  -18.51941
      H1     8.00540  -15.68340  -17.67639
       H    10.99457  -17.08886  -17.54543
       O    10.28144  -17.60372  -18.00281
      H1     9.62518  -16.97501  -18.30600
       H     5.65862  -17.92455  -18.76044
       O     6.18671  -17.34092  -18.21803
      H1     6.81164  -17.99515  -17.77278
       H     6.45337  -13.10184  -10.83916
       O     5.88213  -13.84145  -10.57647
      H1     5.98322  -13.81442   -9.61541
       H    10.33587  -13.45328  -10.32243
       O     9.83501  -13.49572  -11.14770
      H1    10.42616  -14.12146  -11.60460
       H     5.20243  -14.40217  -17.41748
       O     4.83216  -14.86249  -18.15421
      H1     5.32379  -15.72517  -18.03187

