90
frame 2 | Written by MDAnalysis XYZWriter (release 2.4.3)
       H    16.07041  -18.75345   19.65017
       O    16.31726  -19.28350   18.90274
      H1    17.25543  -19.20044   19.10402
       H    12.32715  -16.24041   16.04121
       O    11.96318  -16.12005   16.95195
      H1    11.20229  -15.64843   16.75450
       H     9.62433  -15.08234   15.83259
       O     9.11709  -15.17519   16.64150
      H1     9.47682  -14.42134   17.10445
       H    11.68862  -12.58014   18.88519
       O    11.37932  -11.73074   19.16992
      H1    12.15318  -11.49320   19.75720
       H    18.87832  -14.70839   11.70177
       O    18.76744  -13.78120   11.48395
      H1    19.00308  -13.37237   12.34681
       H    15.98811  -17.81190   14.21231
       O    15.10136  -18.18637   14.35230
      H1    14.68400  -17.47208   14.83025
       H    15.16242  -13.22804   12.74545
       O    15.37769  -14.04967   12.23650
      H1    15.49305  -13.62637   11.35491
       H    17.70778  -13.32479   17.72687
       O    17.95024  -13.78169   18.51915
      H1    18.34352  -13.17014   19.08230
       H    19.12915  -19.08374   15.48285
       O    19.63702  -18.72039   14.71503
      H1    20.05566  -19.53510   14.37618
       H    14.36551  -11.42157   13.38865
       O    15.00545  -11.99642   13.75025
      H1    14.54581  -12.40007   14.63624
       H    14.33832  -16.17356   17.01837
       O    14.94327  -16.47237   16.33840
      H1    15.29142  -15.65422   15.90730
       H    10.65498  -15.40719   11.21992
       O    11.25476  -15.59834   12.04187
      H1    12.13739  -15.45442   11.65179
       H    12.84806  -13.36792   15.32088
       O    13.73695  -13.25720   15.69218
      H1    13.56049  -13.21403   16.61312
       H    10.68331  -13.53119   14.36008
       O    11.18674  -14.20452   14.76555
      H1    11.31030  -14.78621   13.99630
       H    13.19470  -14.34180   10.21803
       O    13.44719  -15.18404   10.57965
      H1    14.18679  -14.89392   11.17208
       H    16.83954  -18.31594   17.20825
       O    17.49378  -17.85699   16.65965
      H1    17.15632  -16.95123   16.64863
       H    16.11937  -14.57502   13.65726
       O    16.52681  -15.10516   14.43027
      H1    17.06051  -14.39736   14.82441
       H     8.78221  -18.86763   17.45658
       O     8.92248  -19.54745   16.74333
      H1     8.45059  -19.06001   16.02404
       H    18.20263  -17.03024   11.95697
       O    19.06069  -16.61319   11.66651
      H1    19.46812  -17.18311   10.98131
       H    19.49093  -10.69213   18.10404
       O    19.45956  -11.23270   18.89985
      H1    19.23558  -10.66823   19.63932
       H    11.56699  -17.69075   18.34072
       O    11.94638  -18.37319   18.91062
      H1    11.54964  -18.23055   19.77223
       H    18.34083  -12.67946   15.49620
       O    17.65608  -12.34805   16.15161
      H1    17.45092  -11.48072   15.75316
       H    19.24400  -18.16048   19.90714
       O    19.08688  -18.66567   19.08873
      H1    18.80800  -17.97901   18.45415
       H     9.05973  -14.00627   19.46910
       O     9.31084  -13.51369   18.70799
      H1     9.93909  -12.81550   19.14158
       H    17.28916  -16.64762   14.04828
       O    17.48372  -17.45631   13.47788
      H1    18.41762  -17.70047   13.69820
       H    15.76097  -14.55363   20.02999
       O    15.33961  -13.80441   19.57951
      H1    16.04834  -13.63665   18.93576
       H    12.58038  -14.67189   18.01436
       O    12.78789  -13.77277   18.24267
      H1    13.45214  -13.88291   18.95386
       H     8.56603  -16.29555   17.85508
       O     8.27557  -17.03997   18.47148
      H1     7.35414  -16.97250   18.26248
       H    12.48277  -19.92537   12.23567
       O    13.28466  -19.34445   12.14140
      H1    13.41975  -19.03691   13.06991
       H    11.94105  -16.84637   13.27722
       O    12.23045  -17.01509   14.18446
      H1    12.03545  -17.94574   14.31766

