90
frame 2 | Written by MDAnalysis XYZWriter (release 2.4.3)
       H    -9.47342  -19.41078   14.42893
       O   -10.03064  -19.28619   15.21776
      H1    -9.59260  -19.85402   15.84909
       H    -8.23484  -11.30543   13.79032
       O    -8.08698  -10.35380   13.95227
      H1    -7.58502  -10.10491   13.14948
       H    -5.03408  -15.59941    9.42413
       O    -5.99481  -15.81689    9.44357
      H1    -6.26280  -15.57808    8.52774
       H    -6.87425  -13.41598   10.71515
       O    -7.15857  -14.17120   11.22000
      H1    -6.74147  -14.90508   10.67178
       H   -11.90524  -16.86380   17.63397
       O   -11.93644  -17.03718   18.58131
      H1   -12.73880  -16.58781   18.89882
       H    -6.50854  -14.16327   13.07555
       O    -5.79561  -14.58646   13.64271
      H1    -6.31636  -15.33360   13.89516
       H   -14.03748  -13.40921   18.21108
       O   -13.81126  -13.77584   17.30722
      H1   -12.88788  -13.91745   17.38753
       H   -15.16212  -19.15273   15.37764
       O   -14.64219  -19.22478   16.16346
      H1   -13.82335  -19.50232   15.72594
       H    -4.92702  -13.27170   16.44861
       O    -4.42995  -13.22807   15.63427
      H1    -4.96147  -13.66888   14.97820
       H    -5.86526  -13.81375   18.04727
       O    -5.23284  -13.10858   18.29781
      H1    -4.43788  -13.62767   18.58650
       H   -10.47800  -15.31200    9.97830
       O   -10.75445  -16.00523    9.37015
      H1   -11.40185  -15.48039    8.82578
       H    -3.83947  -16.30190   16.88858
       O    -3.20681  -15.70869   16.48437
      H1    -3.64641  -14.90797   16.10400
       H   -10.93848  -17.87583   10.31802
       O   -11.20716  -18.62630   10.84570
      H1   -11.42785  -18.04397   11.67737
       H    -8.41096  -16.58770   14.75253
       O    -8.79255  -16.07072   15.46809
      H1    -8.73977  -15.12769   15.12724
       H   -11.63898  -14.44407   13.74900
       O   -11.27464  -13.67682   14.20821
      H1   -12.15205  -13.28863   14.43864
       H   -13.29911  -15.55971   11.36258
       O   -13.43406  -14.69210   10.95720
      H1   -13.92208  -14.79774   10.11951
       H   -11.29330  -16.40276   13.94097
       O   -11.61626  -16.28766   13.02385
      H1   -10.91633  -15.87562   12.61103
       H   -10.93598  -14.32870   16.58075
       O   -11.04701  -13.75432   17.32794
      H1   -10.91644  -12.79778   16.97610
       H    -3.82683  -15.27169   13.55634
       O    -3.01978  -15.70625   13.81195
      H1    -3.02083  -15.68396   14.78615
       H    -8.99849  -14.62682   19.68001
       O    -8.93399  -13.82959   19.19079
      H1    -9.74946  -13.73652   18.69691
       H    -4.23847  -18.41413   16.28683
       O    -4.98648  -18.30455   16.92710
      H1    -4.65405  -18.56988   17.80458
       H   -10.38712  -16.74778   15.81053
       O   -11.36479  -16.82350   15.69484
      H1   -11.53463  -17.80257   15.54039
       H   -13.79306  -15.00888   13.61066
       O   -14.30375  -14.14486   13.47202
      H1   -14.36428  -14.05444   12.49272
       H    -9.65978  -13.26982   13.95878
       O    -8.68597  -13.17710   13.81901
      H1    -8.49608  -13.72416   13.02747
       H   -10.22141  -13.66740   10.71838
       O    -9.94151  -14.41565   11.28857
      H1    -8.96859  -14.46269   11.11356
       H    -7.07235  -17.88424   13.69285
       O    -6.67700  -17.04098   14.05362
      H1    -6.41338  -17.28800   14.94445
       H    -2.68509  -18.09563   14.70417
       O    -3.43948  -18.68804   14.55730
      H1    -3.65651  -18.43860   13.64012
       H    -5.66881  -19.12425   10.18220
       O    -6.20173  -18.36519   10.29910
      H1    -5.61893  -17.60402    9.98372
       H    -4.78876  -16.81549   12.75240
       O    -4.41447  -17.53528   12.18868
      H1    -5.18310  -17.96282   11.79267
       H    -7.40154  -15.33368   17.24189
       O    -6.52241  -15.32947   17.46300
      H1    -6.57645  -15.70037   18.40276

