90
frame 2 | Written by MDAnalysis XYZWriter (release 2.4.3)
       H    -5.15515  -10.45695   18.95904
       O    -5.97625  -10.46582   18.53534
      H1    -5.95462  -11.36092   18.23725
       H    -1.00867  -12.68310   17.80155
       O    -0.10127  -12.31374   17.89349
      H1    -0.26220  -11.63793   17.19550
       H    -8.23484  -11.30543   13.79032
       O    -8.08698  -10.35380   13.95227
      H1    -7.58502  -10.10491   13.14948
       H    -6.87425  -13.41598   10.71515
       O    -7.15857  -14.17120   11.22000
      H1    -6.74147  -14.90508   10.67178
       H    -6.50854  -14.16327   13.07555
       O    -5.79561  -14.58646   13.64271
      H1    -6.31636  -15.33360   13.89516
       H    -6.66808   -8.29889   11.77544
       O    -6.41046   -9.21032   12.01580
      H1    -5.48587   -9.17724   12.29660
       H    -3.15165   -8.67208   16.25193
       O    -3.64872   -9.49906   16.20502
      H1    -4.52397   -9.05972   16.09588
       H    -4.92702  -13.27170   16.44861
       O    -4.42995  -13.22807   15.63427
      H1    -4.96147  -13.66888   14.97820
       H    -6.25256   -9.60090   16.82549
       O    -6.34326   -9.09423   16.05245
      H1    -6.59960   -9.65989   15.28224
       H    -2.94418  -10.67320   12.42321
       O    -2.92626  -11.12749   11.57838
      H1    -3.09232  -10.40478   10.96414
       H    -5.86526  -13.81375   18.04727
       O    -5.23284  -13.10858   18.29781
      H1    -4.43788  -13.62767   18.58650
       H     0.78872  -16.78901   16.38618
       O     0.20960  -16.09733   16.73844
      H1    -0.63724  -16.48241   16.49833
       H    -1.31111  -13.99615   10.80167
       O    -1.52689  -13.21671   10.26995
      H1    -1.96741  -12.60629   10.90025
       H    -2.06686  -14.59062   19.09905
       O    -2.31416  -13.94218   18.38604
      H1    -2.40033  -14.54664   17.63617
       H    -3.83947  -16.30190   16.88858
       O    -3.20681  -15.70869   16.48437
      H1    -3.64641  -14.90797   16.10400
       H    -8.41096  -16.58770   14.75253
       O    -8.79255  -16.07072   15.46809
      H1    -8.73977  -15.12769   15.12724
       H    -3.03965   -9.80121   19.63150
       O    -3.38863  -10.69072   19.57562
      H1    -3.18026  -10.92803   18.66487
       H    -3.82683  -15.27169   13.55634
       O    -3.01978  -15.70625   13.81195
      H1    -3.02083  -15.68396   14.78615
       H    -4.23847  -18.41413   16.28683
       O    -4.98648  -18.30455   16.92710
      H1    -4.65405  -18.56988   17.80458
       H    -2.61750  -12.24701   15.04526
       O    -1.90625  -12.05282   14.36152
      H1    -1.57316  -12.94983   14.12022
       H    -9.65978  -13.26982   13.95878
       O    -8.68597  -13.17710   13.81901
      H1    -8.49608  -13.72416   13.02747
       H    -3.04489   -8.70742   12.98379
       O    -3.75326   -9.22021   13.38183
      H1    -3.45876   -9.21625   14.34596
       H    -0.73757  -10.85501   15.30131
       O    -0.25981  -10.28902   15.91672
      H1     0.57346  -10.11872   15.53951
       H   -10.22141  -13.66740   10.71838
       O    -9.94151  -14.41565   11.28857
      H1    -8.96859  -14.46269   11.11356
       H    -7.07235  -17.88424   13.69285
       O    -6.67700  -17.04098   14.05362
      H1    -6.41338  -17.28800   14.94445
       H    -2.68509  -18.09563   14.70417
       O    -3.43948  -18.68804   14.55730
      H1    -3.65651  -18.43860   13.64012
       H    -4.78876  -16.81549   12.75240
       O    -4.41447  -17.53528   12.18868
      H1    -5.18310  -17.96282   11.79267
       H    -7.40154  -15.33368   17.24189
       O    -6.52241  -15.32947   17.46300
      H1    -6.57645  -15.70037   18.40276
       H    -1.61703  -14.81875   13.30493
       O    -0.71620  -14.47352   13.30271
      H1    -0.33615  -14.84464   12.48340
       H    -4.96400  -11.37416   11.17965
       O    -5.85195  -11.50613   10.74483
      H1    -6.32394  -10.69543   10.99184

