90
frame 2 | Written by MDAnalysis XYZWriter (release 2.4.3)
       H     7.01859    2.16374   -3.68449
       O     6.08004    2.34506   -3.60671
      H1     5.69555    1.49113   -3.83581
       H     5.00894    0.29170   -5.79169
       O     5.43922    0.41299   -6.65381
      H1     6.11122   -0.26826   -6.54425
       H     6.68909    3.68134   -5.89203
       O     7.03528    4.25842   -5.20123
      H1     6.59398    3.89016   -4.42481
       H    13.00364    2.52208   -6.72606
       O    12.81754    1.67041   -6.31899
      H1    13.29726    1.10378   -6.97914
       H     9.61184   -4.28975   -5.25453
       O     9.51836   -5.02291   -4.58902
      H1     8.57030   -5.08943   -4.52831
       H     8.87603   -2.62499  -11.59494
       O     9.04038   -2.61200  -10.60749
      H1     8.29492   -3.24331  -10.31237
       H    13.91737   -5.01179   -9.45546
       O    13.56760   -4.10257   -9.45568
      H1    12.55501   -4.24845   -9.58185
       H     8.65613    4.71433   -4.63767
       O     9.42809    4.92159   -4.08311
      H1    10.04242    5.17468   -4.81109
       H    10.46286    4.72345   -7.85087
       O    10.08252    4.87375   -6.98684
      H1    10.19038    3.95050   -6.66105
       H     8.03930   -5.95427   -6.88601
       O     7.85631   -5.08304   -7.35558
      H1     8.59515   -4.51942   -7.01302
       H     7.59790   -2.15636   -5.47741
       O     7.48458   -2.02031   -6.47354
      H1     6.92555   -2.70887   -6.74558
       H    10.93419    1.15281  -10.90114
       O    11.28916    1.95217  -11.29172
      H1    11.07890    2.60312  -10.56539
       H     9.57618   -1.01086  -10.46489
       O     9.81653   -0.06978  -10.25520
      H1     8.97673    0.38390  -10.43252
       H    14.96017   -0.10509   -8.06128
       O    13.97093    0.01246   -8.07799
      H1    13.72784   -0.89692   -7.87574
       H     6.45641   -1.44155  -10.20742
       O     5.65859   -0.86049  -10.22164
      H1     5.07564   -1.37162  -10.80896
       H    10.95796    1.80605   -6.51241
       O    10.13278    2.20036   -6.14231
      H1     9.56526    1.44109   -6.34885
       H    10.40923   -3.75720   -9.21535
       O    10.96000   -4.35287   -9.74766
      H1    10.59587   -4.42083  -10.64878
       H     5.37689    2.16764   -6.92920
       O     5.49386    3.06530   -7.28866
      H1     4.74481    3.53311   -6.88468
       H     8.22719   -1.38818   -3.55426
       O     8.19153   -2.38309   -3.61723
      H1     8.98809   -2.55265   -3.18121
       H    13.68839   -1.90035   -4.12743
       O    12.89075   -2.29945   -3.74587
      H1    12.31915   -2.42722   -4.53368
       H    13.52784   -3.57703   -6.37108
       O    13.50977   -2.91355   -7.04040
      H1    13.56182   -3.45947   -7.84281
       H    10.96686   -3.11799   -6.53317
       O    10.05180   -3.47342   -6.46525
      H1     9.56173   -2.60624   -6.56926
       H     6.82636   -4.71723  -10.54709
       O     6.81444   -4.07019   -9.79577
      H1     7.10702   -4.57139   -9.04405
       H    12.57987    1.19237   -4.58425
       O    12.36657    0.70132   -3.75901
      H1    11.81112    1.36891   -3.39328
       H     7.37695    1.78454  -10.37631
       O     7.53023    1.02381  -10.98579
      H1     6.81226    0.42323  -10.78393
       H    10.33074    4.83135   -9.68388
       O    11.18580    4.43140   -9.72381
      H1    11.53235    5.04312  -10.37422
       H     8.78299    0.87293   -2.89966
       O     8.31958    0.76851   -3.78464
      H1     8.82652    1.41479   -4.31226
       H    12.96441    3.60061   -9.09631
       O    13.46440    3.42203   -8.29496
      H1    14.30978    3.00779   -8.61624
       H     6.58461    3.19738   -8.67852
       O     7.20480    3.29041   -9.43748
      H1     6.52316    3.41996  -10.14435
       H     9.88294   -0.19237   -8.26437
       O     9.65937   -0.13574   -7.31341
      H1     8.84515   -0.63156   -7.22788

