90
frame 2 | Written by MDAnalysis XYZWriter (release 2.4.3)
       H     6.81750   10.78906   -8.84875
       O     6.81346   11.66918   -9.26734
      H1     6.23582   12.14908   -8.62388
       H     6.68909    3.68134   -5.89203
       O     7.03528    4.25842   -5.20123
      H1     6.59398    3.89016   -4.42481
       H     5.95405    8.79141   -3.63994
       O     5.53436    8.04434   -4.15943
      H1     4.60886    8.32895   -4.32437
       H     2.30613    8.26498   -8.67108
       O     1.45649    8.19502   -9.15028
      H1     1.64497    7.51478   -9.80964
       H     8.65613    4.71433   -4.63767
       O     9.42809    4.92159   -4.08311
      H1    10.04242    5.17468   -4.81109
       H    10.50652    7.34187   -4.44133
       O     9.67301    7.57997   -3.91541
      H1     9.27601    6.70343   -3.90614
       H     3.73436   12.29140   -1.87256
       O     3.11942   12.74816   -2.52336
      H1     2.52877   12.02487   -2.78211
       H     4.83021   11.26148    0.28393
       O     4.88243   11.59102   -0.58835
      H1     5.77780   12.01240   -0.58441
       H     6.10993    7.70514   -6.02578
       O     6.03815    7.77531   -6.97419
      H1     6.64243    7.05911   -7.27089
       H     5.00055    6.37027   -2.59511
       O     4.86664    5.85045   -1.81244
      H1     5.67015    5.98544   -1.37781
       H     4.89618   10.81235   -6.32240
       O     5.72319   10.71522   -5.79595
      H1     5.74771    9.74262   -5.66549
       H     6.90680    7.61812   -0.01700
       O     6.80235    6.65077    0.02904
      H1     7.68660    6.30250    0.19691
       H     4.70620   12.56759   -3.43344
       O     5.51754   12.79279   -3.94901
      H1     5.67437   11.97143   -4.38569
       H     8.39588   10.98970   -5.09325
       O     8.30454   11.11611   -4.14434
      H1     8.64483   12.02017   -4.14745
       H     7.27859    5.04085   -8.37570
       O     7.53274    5.72617   -7.78978
      H1     8.47386    5.63122   -7.58266
       H     5.37689    2.16764   -6.92920
       O     5.49386    3.06530   -7.28866
      H1     4.74481    3.53311   -6.88468
       H     4.83529    8.64839   -7.97531
       O     3.89856    8.91922   -8.18832
      H1     4.13658    9.42272   -8.97796
       H     9.30926    9.91531   -1.72424
       O     9.90619    9.85501   -1.00430
      H1    10.53520   10.61226   -1.10379
       H     7.83545    9.68788   -3.33334
       O     7.66454    9.03663   -2.60788
      H1     8.41404    8.38300   -2.69946
       H     6.02166    8.84406   -1.89671
       O     5.26990    8.83241   -1.28181
      H1     5.11160    9.79251   -1.10621
       H     0.03159    6.17131   -5.19891
       O     0.82434    6.63371   -5.41659
      H1     0.48219    7.10557   -6.18473
       H     7.28872    8.43474   -8.03275
       O     7.86865    9.09245   -8.45435
      H1     8.24981    9.50163   -7.67234
       H     3.86038    7.91754   -0.88805
       O     2.91946    7.75137   -0.67981
      H1     2.98597    6.80853   -0.53220
       H     3.91222    4.20977   -1.17081
       O     3.21187    3.56070   -1.10075
      H1     3.77692    3.00318   -0.54245
       H     0.86984    7.70712   -3.43019
       O     0.94511    8.35158   -2.71997
      H1     1.45723    7.79905   -2.15375
       H     9.98747   10.02854   -6.88823
       O     9.23859   10.60519   -6.74509
      H1     9.42708   11.25660   -7.47215
       H     0.60730   10.84868   -4.27294
       O     1.11169   10.86838   -3.48016
      H1     1.07529    9.91276   -3.24908
       H     2.43150   11.86384   -5.94996
       O     2.92998   11.48331   -6.67604
      H1     3.07570   10.61367   -6.38449
       H     3.17746    8.08193   -6.18826
       O     3.16815    8.68890   -5.41968
      H1     2.52477    8.22445   -4.85290
       H     2.26307    5.12810   -5.79265
       O     2.46272    4.22844   -6.12759
      H1     1.96615    4.19380   -6.95465

