90
frame 2 | Written by MDAnalysis XYZWriter (release 2.4.3)
       H    -3.92690  -12.78400  -15.85205
       O    -4.69427  -13.22758  -16.25870
      H1    -5.22256  -12.48727  -16.57529
       H    -5.60396  -13.46772  -14.79335
       O    -5.87225  -13.66541  -13.86524
      H1    -6.73273  -13.16320  -13.88912
       H   -12.48923  -15.06866  -13.53864
       O   -11.97247  -15.37571  -14.34657
      H1   -12.34579  -16.30598  -14.40029
       H    -8.21402  -11.64093  -13.63476
       O    -8.03045  -12.36411  -14.29449
      H1    -7.82797  -11.91531  -15.12704
       H   -11.82202  -11.26709  -18.72221
       O   -12.54574  -11.27402  -19.35273
      H1   -13.12717  -10.53015  -19.13581
       H   -13.06001  -18.90520  -17.74309
       O   -13.84181  -18.31148  -17.53753
      H1   -13.59530  -17.62456  -18.12404
       H    -6.04851  -18.16149  -16.05138
       O    -5.10986  -18.03017  -16.14931
      H1    -4.80164  -18.04490  -15.21868
       H   -10.59986  -11.38033  -17.07347
       O   -10.52923  -10.49030  -17.48966
      H1    -9.60539  -10.52070  -17.80926
       H   -14.14126  -17.92456  -13.66342
       O   -13.20052  -17.92425  -13.70046
      H1   -13.05113  -17.62905  -12.74781
       H    -9.11220  -16.04432  -17.31500
       O    -8.54150  -15.54873  -16.72132
      H1    -8.92582  -14.69454  -16.71478
       H    -6.81802  -10.43021  -13.78777
       O    -7.34091   -9.87544  -13.18760
      H1    -6.76774   -9.07913  -13.02276
       H   -14.22055  -12.35161  -16.13611
       O   -13.46026  -11.85437  -16.49404
      H1   -13.04944  -11.45739  -15.70478
       H    -4.10701  -15.43994  -13.34051
       O    -3.39860  -15.83880  -13.83643
      H1    -3.40520  -16.68026  -13.41730
       H   -10.51655  -12.00562  -12.62940
       O   -10.41826  -11.30673  -13.32964
      H1   -10.74053  -10.49738  -12.83395
       H    -9.53978  -12.74557  -15.27601
       O    -9.96155  -13.00854  -16.11177
      H1   -10.78570  -13.41739  -15.84847
       H   -13.45462  -15.25203  -17.99417
       O   -13.91917  -15.63575  -18.80863
      H1   -14.60502  -14.94901  -18.90980
       H    -7.11560  -14.94781  -12.98687
       O    -7.89433  -15.15596  -12.42489
      H1    -8.37079  -15.73159  -13.04844
       H    -7.34321  -14.23578  -11.11701
       O    -6.95321  -13.63412  -10.47183
      H1    -7.38002  -13.91957   -9.65323
       H   -10.88648  -19.36826  -15.66623
       O    -9.97675  -19.13724  -15.33832
      H1   -10.12190  -18.26145  -15.04172
       H    -4.54042  -14.73298  -17.14060
       O    -4.34261  -15.67639  -17.39322
      H1    -4.61035  -16.19817  -16.59209
       H    -6.14859  -10.54665  -16.41658
       O    -6.81920  -11.32137  -16.35147
      H1    -7.19031  -11.46962  -17.21025
       H    -9.41369  -12.67851  -11.05164
       O   -10.00387  -13.37056  -11.36350
      H1    -9.35259  -13.96478  -11.72121
       H    -8.31523   -9.26560  -18.83944
       O    -8.33276  -10.20595  -18.90311
      H1    -7.39135  -10.31279  -19.28057
       H   -13.00716  -13.54697  -16.87686
       O   -12.61029  -14.47563  -16.84057
      H1   -12.89434  -14.82909  -15.94451
       H    -8.80659  -17.78347  -12.65343
       O    -8.66747  -18.51056  -12.03238
      H1    -8.84894  -17.97070  -11.25384
       H    -0.93826  -16.01419  -18.28541
       O    -1.56597  -15.25573  -18.36624
      H1    -2.47036  -15.56447  -18.04934
       H    -6.99993  -17.55929  -19.76967
       O    -6.37093  -16.93096  -19.46264
      H1    -6.70113  -16.78730  -18.57826
       H   -10.67525  -16.67861  -19.33933
       O   -10.02833  -16.88682  -18.60536
      H1    -9.64246  -17.70891  -18.87217
       H    -4.07963  -17.78227  -19.02855
       O    -3.48223  -18.19388  -19.66683
      H1    -2.98244  -18.80815  -19.10065
       H    -9.16660  -16.12903  -15.15967
       O    -9.34610  -16.56612  -14.28115
      H1   -10.09027  -16.01226  -14.08175

