90
frame 2 | Written by MDAnalysis XYZWriter (release 2.4.3)
       H   -13.18291    0.35793  -10.81007
       O   -12.89189    1.23665  -10.46113
      H1   -13.12770    1.98520  -11.05661
       H   -12.30570    4.38453  -11.28707
       O   -12.75223    3.67020  -11.83690
      H1   -13.61875    4.05255  -12.12180
       H    -6.26802    2.22942  -17.95029
       O    -6.96587    2.23517  -17.21436
      H1    -7.17787    1.30389  -17.11068
       H    -7.85802    0.65116   -9.33289
       O    -8.32493   -0.17271   -9.57847
      H1    -8.89817   -0.30107   -8.81950
       H    -6.25807   -2.21803   -9.98441
       O    -6.92451   -2.28193  -10.71261
      H1    -7.55551   -1.62282  -10.43180
       H   -11.59015   -2.07310  -16.50538
       O   -12.18992   -1.34461  -16.58961
      H1   -12.89133   -1.59808  -15.90376
       H    -4.93576    1.55996  -14.67442
       O    -5.91147    1.47914  -14.72870
      H1    -6.05539    1.83955  -15.64864
       H    -5.44129   -1.53517  -14.28670
       O    -5.46527   -1.04428  -15.13892
      H1    -5.67217   -0.16122  -14.74969
       H   -11.00662   -3.26668   -9.66431
       O   -10.54783   -3.35685  -10.57003
      H1   -11.17244   -4.01248  -10.95237
       H    -9.29078    0.73840  -10.84573
       O    -9.80308    1.40337  -11.33098
      H1   -10.65235    1.06330  -11.06253
       H    -8.57430   -2.32014  -13.65930
       O    -8.22067   -1.58281  -13.21904
      H1    -7.49304   -1.96447  -12.73180
       H    -7.42591    4.42472  -12.36061
       O    -7.00697    5.28559  -12.42902
      H1    -7.63770    5.87012  -12.02775
       H   -12.56840   -1.91913  -13.43906
       O   -12.63663   -0.97668  -13.45549
      H1   -11.69069   -0.69785  -13.56723
       H   -10.70663   -3.40898  -14.01965
       O    -9.79160   -3.62701  -14.23965
      H1    -9.58472   -3.39896  -15.14108
       H   -13.42341   -1.61722  -11.30987
       O   -13.80600   -1.32817  -10.47811
      H1   -13.38626   -1.92959   -9.86786
       H   -13.84515    3.34488  -16.01024
       O   -14.56334    3.98097  -16.25807
      H1   -15.32968    3.36232  -16.42272
       H    -8.27311    2.16553  -12.02559
       O    -7.45880    2.62038  -12.34011
      H1    -7.12635    2.00512  -13.03746
       H   -11.42099    0.16527  -17.01289
       O   -11.14234    0.87427  -17.62846
      H1   -10.25730    1.04963  -17.35442
       H   -10.45751    2.95995   -8.96000
       O    -9.79137    3.49187   -9.45940
      H1    -9.81133    2.93636  -10.27297
       H    -9.41518   -1.57047  -17.14763
       O    -9.59123   -2.53563  -17.15537
      H1    -9.61788   -2.71738  -18.10285
       H   -10.96698    5.02873  -16.14976
       O   -10.94989    5.35730  -15.23510
      H1   -10.71447    4.54283  -14.79105
       H    -9.42792   -0.52140  -13.42655
       O   -10.16616    0.06783  -13.64711
      H1    -9.86608    0.88262  -13.24849
       H    -7.89760    3.66511  -17.69947
       O    -7.99891    4.46838  -18.21780
      H1    -8.85049    4.82763  -18.02031
       H    -6.95895    2.94722   -8.37693
       O    -7.32619    2.27625   -8.96113
      H1    -8.24783    2.55973   -9.06831
       H   -12.98673   -4.06710  -12.85176
       O   -12.52082   -3.56569  -13.51536
      H1   -12.49979   -4.22906  -14.23463
       H   -13.91680    0.47081  -13.57976
       O   -14.41707    1.07379  -14.21493
      H1   -15.15271    1.43286  -13.69393
       H    -8.94115    0.19008  -15.24720
       O    -8.80320   -0.00393  -16.17913
      H1    -7.94266   -0.49351  -16.22309
       H   -11.32178    2.89783  -14.33643
       O   -10.42824    3.07021  -14.02511
      H1   -10.49338    2.99442  -13.08587
       H   -13.19888    1.65837  -15.30370
       O   -12.64834    2.33716  -15.80172
      H1   -12.22962    1.82149  -16.51898
       H    -4.80394    2.09500  -10.51557
       O    -4.87932    1.64056  -11.32658
      H1    -5.80472    1.79090  -11.57799

