90
frame 2 | Written by MDAnalysis XYZWriter (release 2.4.3)
       H    -1.09646   14.30506   -2.09480
       O    -1.71663   14.04325   -1.40053
      H1    -1.60855   14.81134   -0.81613
       H    -0.56547   12.69127   -1.03627
       O    -0.02206   11.96707   -0.77267
      H1     0.43456   11.77457   -1.58144
       H     3.40538   15.02439   -2.18301
       O     4.13468   15.65391   -2.29041
      H1     3.67020   16.52108   -2.35011
       H     4.37680   13.93884    1.58110
       O     3.57771   13.71237    2.03280
      H1     3.84822   14.22449    2.82929
       H     1.40044   11.49324    2.22702
       O     1.70970   10.61143    2.45466
      H1     1.06077   10.04780    2.00627
       H    -0.18779   13.76351    3.18391
       O    -0.54962   13.91331    4.08568
      H1    -1.42706   14.30087    3.91267
       H     3.73436   12.29140   -1.87256
       O     3.11942   12.74816   -2.52336
      H1     2.52877   12.02487   -2.78211
       H    -3.60738   12.64077    0.37488
       O    -4.49323   13.06796    0.07406
      H1    -5.07016   12.52914    0.60413
       H    -2.40657   16.70028   -0.14191
       O    -1.42207   16.75814   -0.30729
      H1    -1.23993   16.86609   -1.26952
       H     4.83021   11.26148    0.28393
       O     4.88243   11.59102   -0.58835
      H1     5.77780   12.01240   -0.58441
       H     4.50793    9.67634    2.67644
       O     4.35157   10.28618    1.89863
      H1     3.34767   10.34045    1.93814
       H    -0.51257   10.07855   -0.95499
       O    -0.92955    9.15311   -0.87251
      H1    -0.38589    8.82381   -1.65016
       H     1.99076   13.60415   -1.35991
       O     1.35550   14.29137   -1.17212
      H1     0.80595   13.98917   -0.42512
       H    -1.47898    5.88117    0.41455
       O    -1.91388    6.15829   -0.45743
      H1    -1.81843    7.11253   -0.57817
       H     0.60120   14.35724   -2.86600
       O     0.00877   14.51227   -3.61969
      H1    -0.46361   13.68543   -3.78330
       H     3.21722   14.53252   -5.16395
       O     2.32683   14.33035   -5.44168
      H1     1.73768   14.27320   -4.71208
       H    -1.90272   13.04999   -5.34166
       O    -1.60545   12.50310   -4.63850
      H1    -2.23146   12.60307   -3.94473
       H    -0.83383    8.91810    1.10590
       O    -0.67637    8.81723    2.07095
      H1    -0.83791    7.86076    2.11043
       H     4.70620   12.56759   -3.43344
       O     5.51754   12.79279   -3.94901
      H1     5.67437   11.97143   -4.38569
       H    -3.28445    8.85793   -3.12378
       O    -2.88518    9.72013   -3.00380
      H1    -2.29084    9.57939   -2.24747
       H     6.02166    8.84406   -1.89671
       O     5.26990    8.83241   -1.28181
      H1     5.11160    9.79251   -1.10621
       H     3.86038    7.91754   -0.88805
       O     2.91946    7.75137   -0.67981
      H1     2.98597    6.80853   -0.53220
       H    -2.63099   11.56826    1.94764
       O    -2.16026   11.94864    1.14155
      H1    -1.32862   12.32430    1.49739
       H     0.86984    7.70712   -3.43019
       O     0.94511    8.35158   -2.71997
      H1     1.45723    7.79905   -2.15375
       H     0.17749   14.48876    1.52272
       O     0.61472   13.60781    1.61844
      H1     1.56936   13.82411    1.55742
       H     0.60730   10.84868   -4.27294
       O     1.11169   10.86838   -3.48016
      H1     1.07529    9.91276   -3.24908
       H     2.43150   11.86384   -5.94996
       O     2.92998   11.48331   -6.67604
      H1     3.07570   10.61367   -6.38449
       H     3.17746    8.08193   -6.18826
       O     3.16815    8.68890   -5.41968
      H1     2.52477    8.22445   -4.85290
       H     0.96224   16.14424    1.80156
       O    -0.00232   16.05740    1.82768
      H1    -0.30827   16.22000    0.93363
       H     0.12931   11.17927   -6.72202
       O    -0.04862   10.49326   -6.04716
      H1    -0.84972   10.89200   -5.64570

