90
frame 2 | Written by MDAnalysis XYZWriter (release 2.4.3)
       H    10.14423   12.83195  -17.41519
       O    10.43780   13.12421  -16.55968
      H1    11.30406   12.60867  -16.50721
       H     3.49957   16.26571  -17.49668
       O     3.96035   16.87490  -18.09102
      H1     3.45608   16.88415  -18.90210
       H     7.48414   11.58608  -16.95997
       O     6.93069   10.92543  -17.47981
      H1     6.07256   11.37418  -17.69573
       H    15.23422   17.31245  -14.20507
       O    14.98961   17.01277  -13.29625
      H1    14.05138   16.60274  -13.46848
       H     8.19788   16.27496  -16.15209
       O     8.70995   16.42939  -15.38052
      H1     8.52758   17.38957  -15.20968
       H    10.34607   16.13980  -16.19924
       O    10.88543   15.72089  -16.90126
      H1    10.76631   14.74862  -16.60164
       H     7.45266   14.78804  -19.57645
       O     7.10919   15.58020  -19.01484
      H1     7.89801   16.14526  -19.12132
       H    12.60116   15.91401  -16.41617
       O    13.43688   16.14631  -15.93615
      H1    14.02724   15.46620  -16.26183
       H    10.56128    9.76822  -17.23631
       O    10.61505    9.37992  -18.11818
      H1    10.46540   10.19602  -18.67537
       H    11.98634   15.09794  -12.36766
       O    11.31178   14.43442  -12.04234
      H1    10.40128   14.81338  -12.16026
       H     7.65763   12.56428  -15.17649
       O     7.91334   12.99461  -16.02284
      H1     8.90871   13.03951  -15.96162
       H    13.78072   12.98457  -17.05274
       O    14.42668   13.74521  -17.12718
      H1    14.68215   13.69288  -18.07876
       H     2.95776   18.38648  -17.71849
       O     2.26836   18.98564  -17.41096
      H1     1.51312   18.36306  -17.57889
       H    12.52233   16.31360  -14.55833
       O    12.20689   16.45949  -13.68390
      H1    11.73622   17.30534  -13.75221
       H     8.84831   19.22372  -14.02630
       O     8.08666   18.76335  -14.43014
      H1     8.06631   19.25931  -15.26277
       H     9.94665   16.30297  -18.25224
       O     9.45013   16.90353  -18.83720
      H1     9.95503   16.80059  -19.62231
       H    10.52035    9.04028  -14.72903
       O    10.17482    9.60964  -15.48625
      H1    10.25461   10.51659  -15.19270
       H     4.58734   13.46326  -18.48392
       O     4.93458   12.80563  -17.81118
      H1     5.40407   13.47147  -17.23378
       H    11.62067   19.12343  -15.29761
       O    11.37098   19.19555  -14.33111
      H1    11.95264   19.95317  -14.07801
       H    16.29605   18.37592  -16.58834
       O    16.77241   18.08069  -15.76836
      H1    17.61769   18.47138  -15.91510
       H     9.21051   15.87882  -13.43309
       O     9.04511   15.38965  -12.60608
      H1     8.11857   15.23508  -12.58603
       H     3.78168   14.66748  -15.51628
       O     3.10456   15.29090  -15.82847
      H1     3.48272   16.19594  -15.61903
       H     5.52113   16.93907  -15.33599
       O     4.84803   17.38979  -14.83534
      H1     5.40284   18.06975  -14.37229
       H     8.46383   18.64830  -11.64222
       O     9.22887   19.09836  -11.98382
      H1     9.07438   19.92930  -11.51692
       H    14.12446   17.61218  -18.30612
       O    14.43723   18.03718  -17.52360
      H1    14.33757   17.40514  -16.78972
       H     6.80263   15.33745  -17.41834
       O     6.38920   15.31568  -16.50167
      H1     6.82701   14.53153  -16.11216
       H    12.86339   10.82815  -16.93738
       O    12.65162   11.75280  -17.27670
      H1    12.83440   11.71100  -18.25702
       H    11.30890   18.65423  -17.54971
       O    12.02880   18.94705  -16.99619
      H1    12.84690   18.47118  -17.35091
       H     3.91998   12.52717  -15.40238
       O     4.37281   13.09413  -14.77447
      H1     5.06052   12.46334  -14.51574
       H    13.11289   12.93155  -14.28560
       O    12.20133   12.81060  -14.55619
      H1    11.79192   13.51341  -13.99197

