90
frame 2 | Written by MDAnalysis XYZWriter (release 2.4.3)
       H    10.14423   12.83195  -17.41519
       O    10.43780   13.12421  -16.55968
      H1    11.30406   12.60867  -16.50721
       H    15.23422   17.31245  -14.20507
       O    14.98961   17.01277  -13.29625
      H1    14.05138   16.60274  -13.46848
       H    15.56793   11.48860  -12.80137
       O    16.18267   12.00854  -13.38169
      H1    16.21243   11.43070  -14.21287
       H    11.37267    9.01904  -12.48446
       O    10.75876    8.32267  -12.76650
      H1    11.30984    7.55171  -13.16880
       H    18.15432    7.76341   -8.46201
       O    17.98091    7.18174   -9.22246
      H1    17.82916    7.75984   -9.99310
       H    12.60116   15.91401  -16.41617
       O    13.43688   16.14631  -15.93615
      H1    14.02724   15.46620  -16.26183
       H    11.98634   15.09794  -12.36766
       O    11.31178   14.43442  -12.04234
      H1    10.40128   14.81338  -12.16026
       H    15.39549    9.84863  -15.69669
       O    15.91607   10.60462  -16.04741
      H1    16.44123   10.19055  -16.76580
       H    16.99778   12.95113  -15.45846
       O    16.65050   13.85118  -15.69500
      H1    15.93100   13.54657  -16.32699
       H    11.51200   14.80370  -10.34332
       O    11.55188   15.16485   -9.44145
      H1    12.15236   15.95850   -9.56856
       H    14.55363    7.85057  -14.03640
       O    13.78032    8.45507  -14.15396
      H1    13.62937    8.82894  -13.23426
       H    13.78072   12.98457  -17.05274
       O    14.42668   13.74521  -17.12718
      H1    14.68215   13.69288  -18.07876
       H    15.42854   13.67692  -13.31498
       O    14.70862   14.28940  -13.19087
      H1    15.07083   15.13275  -13.29263
       H    13.71083    5.61870  -12.03898
       O    13.48220    5.78580  -11.13763
      H1    14.03454    6.58918  -10.84792
       H    18.44155   16.21282  -14.32969
       O    18.62528   16.48281  -13.44867
      H1    17.90386   16.01233  -13.02262
       H    18.02872   15.07233   -9.67344
       O    17.18021   14.89222  -10.13373
      H1    17.11831   13.89146  -10.15911
       H    12.29922    8.90933  -17.53467
       O    13.24484    9.12942  -17.57171
      H1    13.74470    8.33022  -17.34682
       H    18.07235   12.31333  -12.50920
       O    18.88026   11.90598  -12.13315
      H1    18.75483   10.97242  -12.16596
       H    19.71434    8.23956  -11.64101
       O    19.39910    9.04556  -12.10145
      H1    18.61773    8.89093  -12.68120
       H    13.40465   13.50776   -9.85154
       O    13.37640   12.57817  -10.09636
      H1    12.52539   12.52747  -10.52280
       H     9.81008   12.26340  -11.58105
       O    10.19329   11.51709  -11.05715
      H1     9.82934   11.77857  -10.21277
       H    18.78310   11.89462  -17.53639
       O    19.16952   11.46210  -16.78183
      H1    19.39486   12.28710  -16.32331
       H    15.84289    8.51939  -12.94383
       O    16.59582    7.95838  -13.23610
      H1    16.39982    7.03576  -13.08756
       H    12.32785   11.34164  -12.87510
       O    12.35036   10.51724  -12.30972
      H1    11.56473   10.72160  -11.67727
       H    13.89091   11.29120   -8.22617
       O    13.81394   10.59514   -7.52542
      H1    13.19911    9.94213   -7.88372
       H    13.86030   10.36796  -11.72888
       O    14.75687   10.13125  -11.40405
      H1    14.87947   10.91660  -10.80992
       H    18.03297   12.14246  -10.52918
       O    17.10503   12.14609  -10.17245
      H1    17.23949   12.23260   -9.27263
       H    12.86339   10.82815  -16.93738
       O    12.65162   11.75280  -17.27670
      H1    12.83440   11.71100  -18.25702
       H    15.65331   15.23405   -9.14366
       O    14.94188   15.76172   -8.74946
      H1    15.52184   16.36166   -8.24476
       H    13.11289   12.93155  -14.28560
       O    12.20133   12.81060  -14.55619
      H1    11.79192   13.51341  -13.99197

