90
frame 2 | Written by MDAnalysis XYZWriter (release 2.4.3)
       H   -17.13080   -0.95882    5.59946
       O   -17.39887   -1.85535    5.61315
      H1   -18.05784   -1.87401    6.32344
       H   -18.78430    3.45480   11.18524
       O   -18.41984    3.36771   10.28057
      H1   -17.48631    3.38339   10.55750
       H   -14.21870    1.51687    2.26000
       O   -13.89066    1.60198    3.17632
      H1   -14.35090    2.34549    3.58828
       H   -10.24203   -2.06130    8.39707
       O   -10.88031   -1.94968    7.59708
      H1   -10.75586   -2.76758    7.08227
       H   -10.78863    1.86012    3.20046
       O   -11.26502    1.70983    4.01177
      H1   -12.17029    1.58503    3.65458
       H   -13.23555   -0.29618   10.31055
       O   -12.82607   -0.58708    9.50727
      H1   -13.45912   -1.24934    9.16314
       H   -10.14218    5.20221    8.98456
       O    -9.56830    5.93080    9.16042
      H1    -9.39414    5.78113   10.17646
       H   -11.66712    3.21047    7.80731
       O   -11.18572    4.05923    7.80704
      H1   -10.66004    3.96294    7.03539
       H   -12.87989    0.62190    8.23118
       O   -12.86184    1.37369    7.65150
      H1   -12.68712    0.86932    6.84215
       H   -16.03285    6.98627    5.20861
       O   -15.45275    6.93897    5.98793
      H1   -15.48404    7.85059    6.33360
       H   -11.75668    0.29713    5.26090
       O   -12.39271   -0.23162    5.71232
      H1   -11.80220   -0.60943    6.39935
       H   -11.49006    6.53728    9.55138
       O   -12.39871    6.31816    9.42570
      H1   -12.39736    6.03730    8.41704
       H   -14.91564    4.49091   10.70398
       O   -15.69996    4.18626   11.13419
      H1   -15.63230    4.54580   12.05761
       H   -14.63895    1.99891    7.46149
       O   -15.55803    1.70304    7.58538
      H1   -16.08988    2.49604    7.32301
       H   -19.77428    0.69662    5.12674
       O   -19.24535    0.97540    4.36880
      H1   -18.31151    0.93426    4.62734
       H   -16.81833    6.34529    7.53678
       O   -16.98242    5.65224    8.19851
      H1   -16.10385    5.25928    8.33494
       H   -15.90024    4.03498    4.24953
       O   -14.99169    3.94344    3.92798
      H1   -15.18221    4.18980    2.99027
       H   -10.45756    3.56393    4.50562
       O    -9.85612    4.03304    5.09199
      H1    -9.94454    4.94023    4.93108
       H   -16.51128    0.27371    9.41056
       O   -16.85258   -0.56230    9.62495
      H1   -16.28238   -1.23625    9.21880
       H   -18.99767    0.28806    9.36495
       O   -19.75888   -0.11352    8.91304
      H1   -19.53228   -1.04571    9.11636
       H   -15.02421   -3.40381    8.75760
       O   -15.01808   -2.46321    8.62257
      H1   -14.91841   -2.44360    7.66464
       H   -13.50392    4.52042    7.49378
       O   -14.23846    4.31192    8.09922
      H1   -13.77224    3.77877    8.76376
       H   -13.53919    1.20576   11.68869
       O   -13.75222    1.97597   11.13824
      H1   -14.43089    2.41440   11.58652
       H   -12.37225    2.71100   12.06977
       O   -11.44303    2.89065   12.25134
      H1   -11.45171    3.87600   12.41080
       H   -14.16865    6.15197    5.45956
       O   -13.37383    5.51388    5.52055
      H1   -13.67480    4.74416    5.05004
       H   -15.65479   -1.98529    5.96759
       O   -14.71505   -2.13203    5.74550
      H1   -14.34335   -1.25556    5.72425
       H   -17.47912    4.22913    7.61292
       O   -17.68079    3.42904    7.09894
      H1   -18.58480    3.38063    7.39662
       H   -12.76507   -0.81914   12.44487
       O   -13.66317   -0.55123   12.24066
      H1   -14.18910   -1.33505   12.14329
       H   -17.80239    4.06323    5.41718
       O   -17.83970    4.51189    4.50674
      H1   -18.36163    5.28805    4.75776
       H   -15.54925    1.06264    4.92408
       O   -16.51217    0.95688    5.24645
      H1   -16.46240    1.16183    6.21008

