90
frame 2 | Written by MDAnalysis XYZWriter (release 2.4.3)
       H     6.20631    3.80939   17.22696
       O     6.20291    4.76453   17.38583
      H1     6.33155    4.87098   18.29958
       H     5.37823   11.69505   15.25033
       O     6.19902   11.27548   14.95368
      H1     6.91828   11.93966   15.14700
       H     5.48334    4.16721   12.34574
       O     5.30774    3.71942   11.50605
      H1     4.68487    3.01153   11.73728
       H     4.81439    8.78905   14.43295
       O     4.28581    8.20918   14.98328
      H1     4.39990    7.29992   14.59130
       H     9.88703   11.54616   12.01687
       O     9.49676   10.68609   12.12288
      H1    10.16606   10.04584   11.81336
       H     7.73631   10.37930   18.58553
       O     7.46453   11.30053   18.86061
      H1     7.12646   11.13982   19.76691
       H     0.45997   12.30419   12.39165
       O     0.65872   11.99879   11.52590
      H1     1.37937   11.42452   11.67363
       H     2.88450    9.85646   12.42218
       O     3.01993   10.77843   12.62049
      H1     2.70311   10.73085   13.53171
       H     4.39474   11.67440   17.49298
       O     4.71986   11.44987   18.34746
      H1     5.71229   11.57443   18.28287
       H     3.23583   12.85497   13.21257
       O     3.52711   13.71784   12.94553
      H1     4.29021   13.47842   12.42395
       H     4.05553    8.32028    9.45328
       O     3.92833    8.61940   10.36993
      H1     4.01862    7.88956   10.97266
       H    10.45888    7.68304   13.96562
       O     9.76642    7.12000   13.61990
      H1    10.28026    6.85480   12.81011
       H     3.78227    5.92487   11.74122
       O     4.08735    6.68747   12.23684
      H1     3.33950    6.89291   12.78936
       H     4.95362    4.81012   15.21633
       O     4.08762    4.86861   15.75981
      H1     4.45165    5.05795   16.66555
       H     9.24365   11.69387   14.14918
       O     9.00668   12.29298   14.89123
      H1     9.17106   13.21137   14.59448
       H     0.26549    7.12449   15.79511
       O     0.04724    7.23437   14.88729
      H1    -0.93456    6.97760   14.84987
       H     6.84452    7.99356   12.92795
       O     7.26801    7.22428   12.56403
      H1     7.93096    7.08272   13.23575
       H     1.01362    9.70567   15.55510
       O     0.34727    9.89353   14.90348
      H1     0.06218    8.98443   14.70208
       H     0.84403    5.40929   15.27449
       O     1.44607    4.66993   15.34917
      H1     2.25450    5.06800   15.72076
       H     7.06126    9.68613    9.65713
       O     6.41644   10.35934    9.72178
      H1     5.58931    9.75809    9.89230
       H     2.04566    8.17536   17.50280
       O     2.18105    8.85102   16.76063
      H1     3.00804    8.53036   16.37407
       H     8.36380    8.55772   14.13771
       O     8.00794    8.88415   15.00200
      H1     7.65223    9.77628   14.81211
       H     8.11077   11.46710   11.50861
       O     7.53979   12.18150   11.07564
      H1     6.86818   11.64102   10.60770
       H     2.57113   11.46276   15.99662
       O     3.32736   11.93543   15.67349
      H1     3.29770   12.78250   16.12630
       H     0.64182    7.52057   11.51359
       O     1.36203    7.65052   12.19270
      H1     0.97844    7.37786   12.99096
       H     7.71034    7.47930    9.77870
       O     8.17710    8.22580   10.20717
      H1     8.03915    8.02356   11.15456
       H     7.00481    4.61721   13.98083
       O     6.16830    5.03074   13.61500
      H1     6.53402    5.74327   13.05422
       H     5.10111   10.13730   12.34909
       O     5.98106    9.85650   12.68626
      H1     6.11431   10.58668   13.27671
       H     2.29168    9.20380    9.98137
       O     1.44717    9.71349    9.66133
      H1     1.89535   10.21070    8.90555
       H     7.52294    7.32865   16.72477
       O     8.11012    6.56554   16.73204
      H1     7.45820    5.86244   16.94948

