90
frame 2 | Written by MDAnalysis XYZWriter (release 2.4.3)
       H    -4.08590    8.01031    9.59521
       O    -3.55405    7.25887    9.30348
      H1    -3.03236    7.72367    8.59570
       H   -10.08824    7.78110   14.19738
       O    -9.51764    7.76686   13.44701
      H1    -8.58780    7.81146   13.80987
       H    -3.79762   11.16924   12.58933
       O    -2.98790   11.59878   12.71505
      H1    -2.54352   11.62421   11.85357
       H    -6.31045    8.50531    7.67020
       O    -6.61547    9.38305    7.29460
      H1    -7.48902    9.17925    7.00552
       H    -1.29338   12.24151    8.79651
       O    -1.46308   12.18593    9.75948
      H1    -0.50339   12.04429   10.13090
       H    -4.61782    4.35957    8.53052
       O    -3.73283    4.72211    8.35911
      H1    -3.87348    5.65356    8.68648
       H    -5.79178   15.47057   12.08307
       O    -5.27545   14.61542   12.22002
      H1    -4.70756   14.90871   12.92861
       H    -9.14358   12.51053    8.96332
       O    -8.70988   11.73607    8.62206
      H1    -9.42500   11.04340    8.70812
       H   -10.14218    5.20221    8.98456
       O    -9.56830    5.93080    9.16042
      H1    -9.39414    5.78113   10.17646
       H    -8.92406   11.68689   12.02084
       O    -9.32253   12.21848   12.68179
      H1    -9.92147   11.65368   13.15842
       H    -6.14649   10.90055   14.85861
       O    -5.95679   10.15342   15.44632
      H1    -6.32378    9.47294   14.88330
       H    -6.67288    7.34157   13.64252
       O    -6.95156    7.94626   14.33236
      H1    -7.22904    7.23994   14.99904
       H   -11.54012    9.62892    8.24105
       O   -10.60059    9.59947    8.50715
      H1   -10.36740    8.95472    7.80015
       H   -10.74457   10.08973   14.62096
       O   -10.89509   10.44908   13.71778
      H1   -10.43963    9.82425   13.14999
       H   -10.25372    8.60656   11.56485
       O   -10.56757    9.47680   11.29608
      H1   -10.78233    9.49059   10.32728
       H    -6.44219   13.90350   13.19093
       O    -7.21559   13.59638   13.74855
      H1    -7.84791   13.29828   13.08941
       H    -9.22217    6.27685   12.50235
       O    -8.75317    5.78880   11.77310
      H1    -8.60686    4.92288   12.17916
       H    -2.15477    7.54900   10.45372
       O    -1.21543    7.31366   10.74285
      H1    -0.84243    7.29928    9.81843
       H    -8.01176   11.18313   10.14772
       O    -7.46291   10.90536   10.94656
      H1    -6.75233   11.59678   10.85185
       H   -11.00585   11.88894   11.76523
       O   -11.57740   12.15815   10.98398
      H1   -12.08425   11.37778   10.84912
       H    -6.08846   11.28759    7.75314
       O    -5.24972   11.79775    7.58521
      H1    -5.71000   12.70109    7.57499
       H    -6.13881    9.70126   10.80441
       O    -5.25114    9.31012   10.78741
      H1    -4.73492    9.97366   10.38796
       H    -4.70674   12.59664    9.53461
       O    -5.05065   12.20626   10.33911
      H1    -4.90790   12.87032   11.07084
       H    -7.01153    5.80175    7.25298
       O    -7.20923    6.56510    7.80264
      H1    -8.03215    6.27709    8.19727
       H    -3.41584    5.62713   14.04999
       O    -3.62639    5.01882   13.30441
      H1    -4.49310    5.34944   13.06138
       H    -8.84522   12.22915    7.08070
       O    -8.58741   12.49629    6.18606
      H1    -9.36887   12.71664    5.73756
       H    -2.70623   11.04237    9.25234
       O    -3.01750   10.29737    8.67752
      H1    -3.80330   10.73989    8.41330
       H    -5.71952    7.16268   11.69292
       O    -6.12087    6.38185   12.09195
      H1    -7.08318    6.40413   11.78932
       H    -2.28022    8.95060    7.82497
       O    -2.08730    8.15715    7.23384
      H1    -1.85476    8.65925    6.47999
       H    -9.01554    8.26103    5.77386
       O    -9.29506    7.80548    6.58363
      H1    -8.39779    7.46604    6.88830

