90
frame 2 | Written by MDAnalysis XYZWriter (release 2.4.3)
       H     4.46831  -10.68565   11.60477
       O     3.59308  -10.26534   11.66394
      H1     3.05381  -10.96167   11.27756
       H     8.82942   -8.40200    8.75739
       O     9.24361   -7.68245    9.26397
      H1     9.09725   -8.13067   10.09334
       H     5.12318  -11.03018    7.51282
       O     4.54802  -11.46128    8.14323
      H1     3.82721  -10.83690    8.20065
       H     6.66436   -9.93625    7.14046
       O     6.21078  -10.42824    6.44937
      H1     6.90092  -11.13498    6.23506
       H    11.57663  -11.37314   10.89691
       O    11.05597  -11.25897   10.11258
      H1    10.29772  -10.75939   10.35638
       H     5.59046  -11.62628   12.47275
       O     6.23060  -11.59990   11.68059
      H1     5.97757  -12.48216   11.27624
       H     6.09855   -7.55467    8.74645
       O     5.41578   -7.94216    9.31547
      H1     5.34046   -7.31721   10.02122
       H     6.14772   -6.38723   16.64989
       O     6.89206   -6.41873   15.97912
      H1     7.03288   -7.38838   16.07262
       H    11.41578   -7.24308   10.85662
       O    11.02693   -7.32295   11.69861
      H1    10.74894   -6.41365   11.80465
       H     6.90650   -8.31884   11.69616
       O     6.83038   -7.90729   12.59964
      H1     5.82128   -7.79407   12.67031
       H     8.80859  -11.32859   15.15932
       O     8.85080  -12.27393   14.99987
      H1     8.20522  -12.56231   15.66239
       H     0.62663   -7.09701   12.32056
       O     1.48685   -6.96698   11.88646
      H1     1.52517   -7.62791   11.18034
       H     2.65432   -9.40795   15.85635
       O     2.08003   -8.92887   15.27242
      H1     2.71182   -8.58715   14.62821
       H     5.56480   -8.28153   15.20001
       O     5.76977   -9.06611   15.72738
      H1     5.05702   -9.07476   16.34693
       H     3.33515   -7.30600   13.26485
       O     4.00683   -7.96558   13.41835
      H1     3.74445   -8.64337   12.80779
       H     8.84462  -10.73384    7.44779
       O     8.66216   -9.77936    7.58045
      H1     9.24108   -9.45512    6.89165
       H    11.16600   -8.73362   13.04400
       O    11.19023   -9.64995   13.36474
      H1    10.54620   -9.52132   14.05739
       H     8.82658  -12.19703   13.37020
       O     8.67178  -12.12992   12.39701
      H1     7.72226  -11.93905   12.33622
       H     7.01136   -5.31568    8.59366
       O     7.35128   -6.06685    8.06813
      H1     7.97167   -6.41251    8.71101
       H     6.89592   -5.73964   14.29363
       O     6.72771   -5.18650   13.50500
      H1     6.70535   -5.88354   12.80382
       H     7.47745   -2.61513    9.08053
       O     7.41696   -3.30042    9.75896
      H1     8.27197   -3.62424    9.89237
       H    12.04891   -6.67180    8.71359
       O    11.93582   -7.53169    9.21064
      H1    10.98399   -7.57585    9.32726
       H     9.98124   -9.53864   11.85829
       O     9.12348   -9.57188   11.40780
      H1     8.73418  -10.42557   11.68164
       H     7.25996   -2.26506   14.95685
       O     6.54109   -2.62318   14.46599
      H1     6.84874   -3.49526   14.26368
       H     7.33851   -9.41442   14.98017
       O     8.23919   -9.21378   14.58701
      H1     8.05464   -8.71533   13.78205
       H     4.23770  -11.72926   14.47541
       O     5.20841  -11.50772   14.31917
      H1     5.30457  -10.62856   14.75728
       H     7.74659   -6.22570    6.42816
       O     7.95727   -6.57644    5.53249
      H1     8.92205   -6.40863    5.57265
       H     8.98219   -4.91519   13.03061
       O     9.90573   -4.67746   13.17781
      H1     9.87266   -3.72242   12.98800
       H     4.38780   -5.24905   11.02845
       O     5.11643   -5.64447   11.49338
      H1     4.90690   -5.25384   12.35639
       H     2.16436   -8.52356    9.75298
       O     2.69409   -8.56654    8.94908
      H1     3.57153   -8.34061    9.21749

