90
frame 2 | Written by MDAnalysis XYZWriter (release 2.4.3)
       H   -12.79120    9.32512   -2.10603
       O   -12.30996    8.54351   -2.37253
      H1   -12.83333    8.13225   -3.03407
       H   -11.69379   10.47764    1.42173
       O   -12.11383   11.27663    1.73311
      H1   -12.29371   11.79073    0.96158
       H   -12.06786   13.39845   -3.21590
       O   -11.17084   13.50265   -2.84209
      H1   -11.07129   12.60626   -2.43796
       H   -10.28281    8.05054    1.10339
       O   -11.09513    8.46529    0.81301
      H1   -11.67686    7.71193    0.76116
       H    -9.62456   11.74450   -1.50058
       O   -10.45636   11.23206   -1.43263
      H1   -10.54793   10.72977   -2.22340
       H   -11.73509    9.56371   -6.21092
       O   -11.48227    8.91242   -5.54537
      H1   -10.78862    9.45534   -5.16645
       H    -7.07914   10.84264    0.41371
       O    -7.17048   11.83877    0.36098
      H1    -6.98428   11.93553    1.30324
       H   -16.72330    9.92686   -3.25917
       O   -15.99342    9.72833   -2.65660
      H1   -15.29720    9.40666   -3.22882
       H    -8.51348   11.31579   -3.81818
       O    -8.35542   11.98915   -3.16045
      H1    -7.42990   11.83201   -3.00729
       H    -9.43707   12.33263    3.42490
       O   -10.14571   11.76034    3.74683
      H1   -10.78217   11.78141    2.98797
       H   -15.56641    9.42144   -0.74406
       O   -14.97671    9.33190    0.06337
      H1   -15.42266    9.67356    0.81604
       H   -15.57891   12.68398   -0.90045
       O   -16.10215   12.89769   -0.10823
      H1   -15.62557   13.73654    0.06963
       H   -12.46122   14.91735    2.94265
       O   -12.76741   15.51022    3.69852
      H1   -12.80910   16.34688    3.20070
       H   -10.52163   15.01301   -3.63135
       O   -10.07543   15.87517   -3.70033
      H1   -10.89729   16.39279   -3.53917
       H   -11.76088    8.45290    5.06661
       O   -12.03047    9.39484    5.11424
      H1   -11.30138    9.81916    4.65463
       H   -16.00980   11.76705    1.54628
       O   -16.27344   10.92599    1.92801
      H1   -16.05797   11.10012    2.85275
       H    -8.50854    9.23514   -5.10490
       O    -9.16189    9.67836   -4.53929
      H1    -9.00549    9.27513   -3.66821
       H   -14.84931   16.56301   -0.19644
       O   -14.95531   15.59495   -0.34261
      H1   -14.92980   15.52755   -1.34444
       H   -11.12966   14.04304   -1.04877
       O   -10.94359   14.39120   -0.17903
      H1   -11.23274   15.30887   -0.29152
       H    -8.27048    8.33647   -1.94389
       O    -9.25837    8.49639   -2.06966
      H1    -9.52033    8.99754   -1.28968
       H   -13.97703    6.46057    0.08987
       O   -14.18983    6.89272    0.92406
      H1   -14.45666    7.82371    0.65787
       H   -14.04295   12.75802    2.84394
       O   -13.98265   12.08388    3.48929
      H1   -13.30407   11.54141    3.11911
       H   -13.37675    8.90683   -4.66232
       O   -14.20528    8.36417   -4.46631
      H1   -14.75679    8.44839   -5.23456
       H    -9.30955   15.00669   -0.15282
       O    -8.37255   15.24115   -0.16230
      H1    -7.82639   14.57525    0.19742
       H   -13.67037   14.61209    0.61917
       O   -13.14930   14.07753    1.27409
      H1   -12.33531   14.08609    0.75856
       H   -16.91037   12.08150   -3.62739
       O   -16.14513   12.63923   -3.67439
      H1   -15.71255   12.16146   -4.38511
       H   -10.80101    5.83395   -1.89446
       O    -9.83328    5.74178   -2.14380
      H1    -9.58813    6.66253   -2.13724
       H   -13.45287   10.53329   -0.17543
       O   -13.12802   11.20063   -0.87373
      H1   -12.17000   11.11705   -0.71280
       H   -13.05810   17.08691   -0.60869
       O   -12.17263   16.77771   -0.76206
      H1   -11.74239   17.57626   -0.46037
       H   -13.87283   14.72284   -4.17869
       O   -13.48272   13.88983   -4.58827
      H1   -14.26294   13.34211   -4.63182

