90
frame 2 | Written by MDAnalysis XYZWriter (release 2.4.3)
       H    -8.41837   15.70436   18.21764
       O    -9.16914   16.22305   18.52866
      H1    -9.85123   16.15046   17.89727
       H    -8.43144   14.73755   14.33219
       O    -9.15825   15.39404   14.50593
      H1    -9.72690   15.22801   13.75681
       H    -2.49636   17.99811   10.71176
       O    -2.76975   18.55422   11.45124
      H1    -2.32439   18.13844   12.19629
       H    -5.74341   17.05458    6.43800
       O    -5.01077   16.51069    6.46911
      H1    -5.24447   15.93838    5.71049
       H   -14.47496   16.61047   13.19851
       O   -14.05974   17.41507   12.85531
      H1   -13.35984   17.60097   13.45442
       H    -5.79178   15.47057   12.08307
       O    -5.27545   14.61542   12.22002
      H1    -4.70756   14.90871   12.92861
       H    -8.79891   18.67065   12.15872
       O    -9.07667   19.62668   12.40183
      H1    -9.81814   19.73773   11.79046
       H   -11.69694   17.73726   19.70620
       O   -11.53794   18.69534   19.49085
      H1   -12.22475   18.87022   18.78599
       H   -10.91289   16.83436    9.39442
       O    -9.97989   16.62380    9.58757
      H1   -10.06343   15.66473    9.37597
       H   -10.73456   13.17299    9.71153
       O   -10.36929   13.76805    8.99049
      H1   -10.84467   13.49623    8.17695
       H    -8.69353   18.99548   17.76856
       O    -8.39494   18.49782   16.98234
      H1    -8.63024   17.63197   17.38519
       H    -6.03086   14.95836    9.02889
       O    -6.11557   14.53333    8.11320
      H1    -5.70175   15.18612    7.48999
       H    -6.02903   16.85864   18.21530
       O    -6.25572   16.40908   17.36565
      H1    -5.88796   17.06383   16.80053
       H    -6.44219   13.90350   13.19093
       O    -7.21559   13.59638   13.74855
      H1    -7.84791   13.29828   13.08941
       H   -11.67307   14.77100   12.22398
       O   -10.80584   15.07905   12.51786
      H1   -10.70921   15.79716   11.79891
       H    -9.22585   16.68213    7.93516
       O    -8.65130   16.21821    7.28970
      H1    -7.99306   15.78681    7.87234
       H    -3.89992   15.30688   14.98357
       O    -3.49674   15.91164   14.38981
      H1    -3.39457   16.71616   14.93516
       H   -11.72681   15.53437   16.64715
       O   -11.00153   16.14680   16.48569
      H1   -10.42963   15.69596   15.82785
       H    -7.39047   16.68516   11.26923
       O    -7.30964   16.12527   10.42914
      H1    -8.21689   16.16102   10.14351
       H    -3.14119   18.05873    8.65259
       O    -2.77303   17.16014    8.81289
      H1    -1.86056   17.39693    8.92967
       H    -7.98565   17.72750    6.62880
       O    -7.31070   18.29619    6.19252
      H1    -7.60760   19.08939    6.62495
       H   -13.11637   15.55141   10.84288
       O   -12.99724   16.39664   10.37665
      H1   -13.53811   16.95390   10.92280
       H    -7.20498   18.68327   15.89429
       O    -6.75095   18.79652   15.02468
      H1    -5.86100   19.00397   15.36051
       H    -7.43601   17.76598   13.74960
       O    -7.71808   17.21760   13.00358
      H1    -8.19990   16.48516   13.47862
       H   -14.08774   18.89861    9.57479
       O   -13.88922   19.86170    9.69715
      H1   -12.92878   19.72497   10.00759
       H    -5.75847   17.51305   10.09463
       O    -5.16332   18.21574    9.79314
      H1    -4.54279   18.23495   10.54520
       H   -12.60330   18.35251    6.73430
       O   -12.02096   18.97292    7.20148
      H1   -12.66387   19.65071    7.38776
       H   -11.42683   18.93167   15.07344
       O   -12.29810   18.46325   15.21972
      H1   -11.85907   17.60844   15.52377
       H    -3.00202   17.38268   17.13933
       O    -3.42374   17.76937   16.34136
      H1    -3.02025   18.68361   16.32448
       H   -12.99338   13.16088   11.71678
       O   -13.59893   13.89413   11.85214
      H1   -13.66021   13.83417   12.80605

