90
frame 2 | Written by MDAnalysis XYZWriter (release 2.4.3)
       H    -4.01183   -7.34440    4.94829
       O    -4.82742   -6.78175    4.98113
      H1    -4.86713   -6.39705    5.88472
       H    -7.96979  -11.85322    8.51049
       O    -7.23813  -12.48601    8.44711
      H1    -6.65584  -12.13636    9.10513
       H    -9.84933  -11.02472    9.94469
       O    -9.39652  -10.65059    9.17079
      H1   -10.01087  -10.11417    8.69986
       H    -2.97809   -3.27120    9.78161
       O    -3.94496   -3.36737    9.82675
      H1    -3.97512   -3.25352    8.87506
       H    -8.23484  -11.30543   13.79032
       O    -8.08698  -10.35380   13.95227
      H1    -7.58502  -10.10491   13.14948
       H    -8.50864   -7.05156   10.41171
       O    -7.78866   -7.02916   11.06450
      H1    -6.98629   -6.69890   10.51525
       H    -2.28970   -8.15998    5.89174
       O    -2.50364   -8.21146    4.94532
      H1    -1.96648   -7.44828    4.63271
       H    -1.98274   -4.45363   11.68694
       O    -1.23729   -3.83607   11.52139
      H1    -0.92924   -4.38179   10.72457
       H    -5.26698   -3.05446   12.16567
       O    -5.87787   -2.32932   12.47406
      H1    -5.59587   -1.47086   12.05589
       H    -6.66808   -8.29889   11.77544
       O    -6.41046   -9.21032   12.01580
      H1    -5.48587   -9.17724   12.29660
       H    -0.65451   -6.21245    7.10353
       O    -1.40388   -6.76508    7.42183
      H1    -2.06338   -6.03815    7.52623
       H    -6.68755   -8.28400    7.01260
       O    -7.42562   -7.64721    6.94227
      H1    -8.08046   -7.88956    7.62016
       H    -8.32106   -7.17640    5.38990
       O    -9.17800   -7.11492    4.96918
      H1    -9.83428   -7.10978    5.63184
       H    -4.69255   -9.41913    9.00600
       O    -5.56030   -9.30155    8.59939
      H1    -5.92185  -10.03494    9.18900
       H    -2.94418  -10.67320   12.42321
       O    -2.92626  -11.12749   11.57838
      H1    -3.09232  -10.40478   10.96414
       H    -2.33250   -9.23514    8.85952
       O    -3.04136   -9.08208    9.50482
      H1    -2.77499   -8.29711   10.02599
       H    -6.30580   -5.56994   13.89196
       O    -6.19972   -5.29827   12.96963
      H1    -6.96312   -5.79578   12.64081
       H    -7.80760   -2.91170    9.63843
       O    -7.80487   -3.63523   10.26752
      H1    -7.66471   -3.20812   11.10649
       H     0.55413   -5.71780    9.68688
       O    -0.32026   -6.03310    9.88968
      H1    -0.55087   -6.42605    9.03256
       H    -9.59881   -8.57911    9.78455
       O    -9.43817   -7.91280    9.11306
      H1   -10.32729   -7.61309    8.81882
       H    -7.28736   -4.46005    8.18199
       O    -7.53964   -4.69680    7.24616
      H1    -7.69014   -5.64629    7.31190
       H    -3.04489   -8.70742   12.98379
       O    -3.75326   -9.22021   13.38183
      H1    -3.45876   -9.21625   14.34596
       H    -5.10341   -5.88316    7.84080
       O    -4.84715   -5.25335    7.15923
      H1    -5.73607   -4.87851    6.98076
       H    -5.39543  -11.42993    5.81019
       O    -6.35839  -11.37957    5.85178
      H1    -6.49100  -11.48812    6.80185
       H    -3.31877   -4.11754    7.13281
       O    -2.36752   -4.01576    7.46795
      H1    -2.10535   -3.24917    6.94386
       H    -5.56797   -7.44624    9.43743
       O    -5.70537   -6.46715    9.33998
      H1    -5.04715   -5.99723    9.85183
       H    -3.30258   -5.26137   13.30823
       O    -3.53397   -4.83031   12.52585
      H1    -4.50662   -4.87768   12.64216
       H    -8.96410   -4.65486   11.11440
       O    -9.65406   -4.68177   11.78556
      H1    -9.60112   -5.62316   12.11240
       H    -4.96400  -11.37416   11.17965
       O    -5.85195  -11.50613   10.74483
      H1    -6.32394  -10.69543   10.99184
       H    -1.54078   -6.84222   11.25086
       O    -2.36636   -7.05995   11.64879
      H1    -2.76888   -6.14833   11.65500

