90
frame 2 | Written by MDAnalysis XYZWriter (release 2.4.3)
       H    -3.02495   15.56368    6.57205
       O    -2.21953   15.04297    6.33934
      H1    -1.49835   15.33641    6.97469
       H    -4.71220   18.54332    2.80327
       O    -4.35687   17.77937    3.21033
      H1    -3.51447   17.92313    2.72149
       H    -0.97144   11.00154    5.45928
       O    -1.28833   10.38588    4.80650
      H1    -0.54970   10.22243    4.17623
       H    -1.29338   12.24151    8.79651
       O    -1.46308   12.18593    9.75948
      H1    -0.50339   12.04429   10.13090
       H    -3.20138   13.56051    5.74295
       O    -3.94928   12.98066    5.43573
      H1    -4.17513   12.55354    6.27901
       H    -5.74341   17.05458    6.43800
       O    -5.01077   16.51069    6.46911
      H1    -5.24447   15.93838    5.71049
       H    -4.01214    7.90803    3.12428
       O    -4.33248    8.66632    2.62292
      H1    -3.85698    9.36957    3.08304
       H    -0.18779   13.76351    3.18391
       O    -0.54962   13.91331    4.08568
      H1    -1.42706   14.30087    3.91267
       H    -3.60738   12.64077    0.37488
       O    -4.49323   13.06796    0.07406
      H1    -5.07016   12.52914    0.60413
       H    -7.47314   13.91207    2.85738
       O    -7.78073   12.97446    2.79591
      H1    -7.21936   12.59777    3.47099
       H    -6.03086   14.95836    9.02889
       O    -6.11557   14.53333    8.11320
      H1    -5.70175   15.18612    7.48999
       H     2.20601   14.78628    5.74675
       O     1.48377   14.10435    5.93269
      H1     0.84834   14.32594    5.20734
       H     0.01812   11.68437    7.60352
       O    -0.65425   12.19491    7.11589
      H1    -0.08356   12.94402    6.79740
       H    -6.09768    9.03160    5.33256
       O    -6.23262    8.50777    4.52474
      H1    -6.13989    9.20407    3.83605
       H    -3.32089   15.76638    3.24522
       O    -2.84747   14.92694    3.01245
      H1    -3.14232   14.85472    2.06846
       H    -6.08846   11.28759    7.75314
       O    -5.24972   11.79775    7.58521
      H1    -5.71000   12.70109    7.57499
       H    -4.70674   12.59664    9.53461
       O    -5.05065   12.20626   10.33911
      H1    -4.90790   12.87032   11.07084
       H    -2.21919   13.79700    9.59051
       O    -2.59869   14.60373    9.97404
      H1    -2.58745   15.32962    9.32376
       H    -3.14119   18.05873    8.65259
       O    -2.77303   17.16014    8.81289
      H1    -1.86056   17.39693    8.92967
       H    -5.56282   11.99696    4.85253
       O    -6.38313   11.67199    4.53872
      H1    -6.86094   11.84507    5.31404
       H    -5.02689   14.13224    4.28348
       O    -5.79180   14.72746    4.27783
      H1    -5.81954   15.21535    3.41675
       H    -0.18574   16.19726    8.21368
       O    -0.14207   15.24088    7.92658
      H1     0.63641   15.24504    7.27467
       H    -2.70623   11.04237    9.25234
       O    -3.01750   10.29737    8.67752
      H1    -3.80330   10.73989    8.41330
       H    -3.16788   17.65205    6.38345
       O    -2.80137   18.23031    5.70533
      H1    -3.35194   17.91652    5.01817
       H    -2.63099   11.56826    1.94764
       O    -2.16026   11.94864    1.14155
      H1    -1.32862   12.32430    1.49739
       H    -2.28022    8.95060    7.82497
       O    -2.08730    8.15715    7.23384
      H1    -1.85476    8.65925    6.47999
       H    -0.94450   16.45794    3.87066
       O    -0.51721   16.96111    4.57450
      H1    -1.29233   17.21067    5.06207
       H     1.81802   10.90160    4.41324
       O     1.59817   10.56236    5.28756
      H1     0.82583   11.04918    5.51898
       H    -3.47472   12.10396    4.06962
       O    -3.38046   11.34037    3.49903
      H1    -2.76165   10.87831    4.08489
       H     0.17749   14.48876    1.52272
       O     0.61472   13.60781    1.61844
      H1     1.56936   13.82411    1.55742

