90
frame 4 | Written by MDAnalysis XYZWriter (release 2.4.3)
       H   -11.39215    9.10918    3.88862
       O   -12.18448    9.50222    4.27212
      H1   -12.83032    9.59873    3.52221
       H    -8.70511   15.38885   14.13181
       O    -8.14335   14.70673   13.69572
      H1    -8.78317   14.13030   13.30691
       H    -9.22940    8.97494    7.26130
       O    -8.37643    8.62618    7.36424
      H1    -8.50898    7.98235    8.09070
       H   -14.39944    9.68990    6.78679
       O   -14.04716   10.33359    7.43172
      H1   -13.35724    9.89903    7.91022
       H   -11.63067    9.11049    9.72552
       O   -11.80156    8.70208    8.88624
      H1   -12.18886    7.82897    9.10475
       H    -7.65885   16.20138    6.24443
       O    -8.15681   15.60703    5.60633
      H1    -7.52772   15.26883    5.01560
       H   -10.54633   16.96109   10.65985
       O    -9.74057   17.31053   10.24001
      H1    -9.10593   17.17250   10.97795
       H    -6.39738   12.27322    7.46783
       O    -5.91084   12.93655    7.96531
      H1    -6.45065   13.73342    7.90176
       H   -14.90208   16.30752    9.08919
       O   -14.15705   16.72922    9.60419
      H1   -13.85749   16.05648   10.22859
       H    -5.85544    9.28203   10.60685
       O    -6.32177   10.02394   10.91079
      H1    -6.39289   10.01868   11.87899
       H   -11.27801    9.13613    7.24716
       O   -10.68437    9.65465    6.61885
      H1   -11.10584    9.71044    5.77919
       H    -6.46996   14.79667   12.78397
       O    -5.81337   14.81999   12.11336
      H1    -5.81266   14.00493   11.55029
       H   -10.03955   16.10458    4.88966
       O   -10.91880   16.50951    4.86623
      H1   -11.14465   16.88784    5.72758
       H   -14.03935   10.73589   11.60753
       O   -13.64376   10.47737   10.75592
      H1   -14.18568   10.91664   10.11761
       H   -10.01286   11.73250   11.37755
       O   -10.40954   12.35919   11.99233
      H1   -10.92328   12.79071   11.34654
       H   -10.65893   15.81452    7.79573
       O    -9.99048   15.08283    7.92208
      H1    -9.47105   14.99722    7.15970
       H   -10.48305   13.76079    3.73177
       O    -9.69160   14.11652    3.31981
      H1   -10.04474   14.38909    2.44052
       H   -11.94538   11.58723    4.38911
       O   -11.64207   12.44823    4.67461
      H1   -11.04697   12.33669    5.38727
       H   -12.67646   16.99410    8.39487
       O   -12.00329   17.00217    7.73863
      H1   -11.34528   17.67351    7.97410
       H   -13.02092   13.97119   10.76244
       O   -13.67654   14.42555   11.31617
      H1   -13.31724   14.54467   12.19287
       H   -11.56921   10.17828   11.79776
       O   -11.04605    9.36545   11.76163
      H1   -10.20761    9.70070   11.42982
       H   -13.14176   13.49610    5.82666
       O   -13.95588   13.68308    6.40649
      H1   -14.64012   13.24818    5.87624
       H    -5.48317   12.85446    9.65240
       O    -5.38821   12.64927   10.56732
      H1    -5.69047   11.71018   10.55639
       H    -7.30169   16.15121    9.55907
       O    -7.34345   15.36379    9.04608
      H1    -8.28067   15.32918    8.75366
       H    -9.94231   12.51681    8.27182
       O    -9.73279   12.05779    7.43894
      H1   -10.17978   11.19278    7.41310
       H    -8.21321   10.45589   10.43452
       O    -9.03690   10.84140   10.01030
      H1    -8.74556   11.16689    9.16713
       H    -7.15009    9.98000    6.53401
       O    -7.19046   10.88049    6.21419
      H1    -8.11054   11.07064    6.28679
       H   -12.38290   13.35011    8.68027
       O   -11.99405   13.44856    9.58277
      H1   -11.57306   14.30594    9.53857
       H   -16.75352   12.78955    8.18534
       O   -15.98484   12.44007    8.61574
      H1   -15.44894   12.05052    7.89779
       H    -4.57543   12.57744    5.91861
       O    -4.49611   11.79277    5.41919
      H1    -5.34444   11.34443    5.60510

