90
frame 2 | Written by MDAnalysis XYZWriter (release 2.4.3)
       H    -2.42688  -10.54612  -13.95387
       O    -2.18686   -9.69827  -13.48548
      H1    -2.39138   -9.98226  -12.54966
       H    -5.72743   -8.33685  -10.59257
       O    -5.97165   -8.55445   -9.69815
      H1    -5.43140   -7.89026   -9.15990
       H    -5.60396  -13.46772  -14.79335
       O    -5.87225  -13.66541  -13.86524
      H1    -6.73273  -13.16320  -13.88912
       H    -2.34904  -15.52083   -9.83598
       O    -1.70609  -14.86484  -10.19690
      H1    -2.28330  -14.08532  -10.13685
       H    -6.83062   -9.19332   -5.64305
       O    -7.67275   -8.82041   -5.35603
      H1    -7.53869   -7.90156   -5.08264
       H    -8.21402  -11.64093  -13.63476
       O    -8.03045  -12.36411  -14.29449
      H1    -7.82797  -11.91531  -15.12704
       H    -0.89217  -11.05916   -8.33866
       O    -1.57491  -11.19536   -9.02048
      H1    -2.05818  -11.97060   -8.67244
       H    -2.86894   -5.43086  -10.83814
       O    -2.97138   -6.37707  -10.49877
      H1    -3.85755   -6.29813  -10.06978
       H    -9.01572   -9.48050   -6.51541
       O    -9.68799   -9.86173   -7.15233
      H1    -9.80499  -10.74777   -6.68897
       H    -6.81802  -10.43021  -13.78777
       O    -7.34091   -9.87544  -13.18760
      H1    -6.76774   -9.07913  -13.02276
       H    -6.39208  -14.65135   -8.25764
       O    -7.28190  -14.37375   -8.02358
      H1    -7.23953  -13.38956   -7.81970
       H    -2.34705   -9.73292   -9.96661
       O    -2.80246   -9.23628  -10.73034
      H1    -2.97832   -8.37814  -10.29526
       H    -6.53095  -13.00939   -4.72247
       O    -6.79877  -12.13732   -5.11756
      H1    -6.68176  -11.48201   -4.39618
       H    -2.44353  -14.37438  -13.12373
       O    -2.57169  -13.41645  -12.94219
      H1    -1.70016  -13.33220  -12.52152
       H    -4.88273  -11.94608  -10.07034
       O    -5.19220  -11.23861   -9.39730
      H1    -5.28825  -10.47684   -9.91714
       H    -6.57341  -11.48375   -8.34090
       O    -7.41521  -11.77541   -7.90958
      H1    -7.38555  -11.49114   -6.98418
       H    -5.22269  -13.45411  -11.32363
       O    -4.29487  -13.15820  -11.00502
      H1    -3.87734  -13.25469  -11.89146
       H    -0.59576   -9.59760   -6.79488
       O    -1.07604   -9.86775   -6.00110
      H1    -1.68518   -9.15211   -5.82518
       H    -4.84618   -8.71049   -6.95710
       O    -5.20446   -9.59324   -6.88376
      H1    -5.20029   -9.93276   -7.79663
       H    -7.34321  -14.23578  -11.11701
       O    -6.95321  -13.63412  -10.47183
      H1    -7.38002  -13.91957   -9.65323
       H    -2.97019  -12.61085   -6.75279
       O    -2.43461  -13.15189   -7.34127
      H1    -3.13359  -13.71081   -7.64151
       H    -8.13614  -10.71194  -11.46520
       O    -8.39458  -11.25789  -10.68194
      H1    -7.65367  -11.87283  -10.64207
       H    -5.59572   -5.98791   -8.01767
       O    -4.82261   -6.33269   -8.44159
      H1    -4.13747   -6.55975   -7.73937
       H    -8.51753   -9.44180   -9.68959
       O    -8.50938   -8.47110   -9.77658
      H1    -7.53324   -8.32329   -9.77286
       H    -9.41369  -12.67851  -11.05164
       O   -10.00387  -13.37056  -11.36350
      H1    -9.35259  -13.96478  -11.72121
       H    -2.42072   -6.53112   -6.58555
       O    -3.05263   -7.31063   -6.60069
      H1    -3.13805   -7.26923   -5.62728
       H    -4.69419  -12.24292   -5.41207
       O    -3.94114  -11.66865   -5.66975
      H1    -4.30213  -10.89819   -6.16702
       H    -4.30338  -10.05600   -3.02320
       O    -4.27116   -9.67528   -3.90967
      H1    -3.69502  -10.24762   -4.45043
       H    -4.97660   -7.83997  -13.17519
       O    -5.67532   -7.67946  -12.50722
      H1    -5.72535   -6.70910  -12.45726
       H    -4.19894  -15.47256   -8.63287
       O    -4.44425  -14.54657   -8.64094
      H1    -4.37347  -14.37171   -9.60151

