90
frame 2 | Written by MDAnalysis XYZWriter (release 2.4.3)
       H     7.01859    2.16374   -3.68449
       O     6.08004    2.34506   -3.60671
      H1     5.69555    1.49113   -3.83581
       H    -2.24860    3.81554   -4.25278
       O    -1.40608    3.32453   -4.25627
      H1    -0.85953    3.97737   -3.73995
       H    -0.83805    5.59677   -2.66774
       O    -0.05745    5.15018   -3.08365
      H1     0.56583    5.08533   -2.34508
       H     1.22861    0.08964    4.00776
       O     1.58628    0.95072    4.13561
      H1     2.45452    0.95108    3.65573
       H     6.10824    6.20924    1.76627
       O     5.98322    5.84700    2.69492
      H1     5.38114    5.07700    2.46350
       H    -0.51257   10.07855   -0.95499
       O    -0.92955    9.15311   -0.87251
      H1    -0.38589    8.82381   -1.65016
       H    -1.47898    5.88117    0.41455
       O    -1.91388    6.15829   -0.45743
      H1    -1.81843    7.11253   -0.57817
       H     6.55150    1.77181   -0.20589
       O     5.82793    2.13392   -0.78119
      H1     6.11579    1.98371   -1.73575
       H     5.00055    6.37027   -2.59511
       O     4.86664    5.85045   -1.81244
      H1     5.67015    5.98544   -1.37781
       H     6.90680    7.61812   -0.01700
       O     6.80235    6.65077    0.02904
      H1     7.68660    6.30250    0.19691
       H    -0.83383    8.91810    1.10590
       O    -0.67637    8.81723    2.07095
      H1    -0.83791    7.86076    2.11043
       H     3.66792    3.66200    3.45803
       O     4.54992    3.27261    3.29896
      H1     4.97455    3.56641    4.09093
       H     1.53906    2.62825    3.60055
       O     1.88810    3.46893    3.20072
      H1     1.76483    3.19953    2.24953
       H     3.02137    7.30492    1.14153
       O     2.90113    6.44487    1.58617
      H1     2.97303    6.54198    2.54695
       H     0.18125    5.77866    2.48891
       O    -0.65870    6.09994    2.16145
      H1    -1.33678    5.58828    2.65952
       H     1.87341    4.53761   -0.70035
       O     1.17900    5.13262   -0.38036
      H1     1.52206    5.55889    0.43532
       H     3.69939    6.15004    4.87704
       O     3.04001    6.56827    4.31164
      H1     2.32268    6.72230    4.98296
       H     1.97757    2.47613   -0.10259
       O     1.69136    2.07281    0.75536
      H1     1.31294    1.29405    0.38734
       H    -3.54379    3.25673   -0.97276
       O    -3.31066    3.41398   -0.03569
      H1    -2.77244    4.24652   -0.11873
       H     6.02166    8.84406   -1.89671
       O     5.26990    8.83241   -1.28181
      H1     5.11160    9.79251   -1.10621
       H     0.03159    6.17131   -5.19891
       O     0.82434    6.63371   -5.41659
      H1     0.48219    7.10557   -6.18473
       H     3.86038    7.91754   -0.88805
       O     2.91946    7.75137   -0.67981
      H1     2.98597    6.80853   -0.53220
       H     0.17090    0.20406   -3.74201
       O    -0.57522    0.61166   -3.33374
      H1    -0.66895    1.42351   -3.79141
       H     3.91222    4.20977   -1.17081
       O     3.21187    3.56070   -1.10075
      H1     3.77692    3.00318   -0.54245
       H     3.77198   -0.14161   -0.33518
       O     3.90619    0.33654   -1.11318
      H1     4.52704    1.00241   -0.81752
       H     0.86984    7.70712   -3.43019
       O     0.94511    8.35158   -2.71997
      H1     1.45723    7.79905   -2.15375
       H    -3.21677    0.74238    1.34490
       O    -3.14643    0.84838    0.42466
      H1    -2.91399    1.81757    0.35583
       H     0.78818    0.87222   -1.53788
       O     0.97858    0.14135   -1.01438
      H1     1.81381   -0.13344   -1.38088
       H     3.17746    8.08193   -6.18826
       O     3.16815    8.68890   -5.41968
      H1     2.52477    8.22445   -4.85290
       H     2.26307    5.12810   -5.79265
       O     2.46272    4.22844   -6.12759
      H1     1.96615    4.19380   -6.95465

