90
frame 2 | Written by MDAnalysis XYZWriter (release 2.4.3)
       H    18.56714   -9.18164   16.49131
       O    19.44533   -9.24041   16.75644
      H1    19.85239   -9.84201   16.09565
       H    14.43141   -0.62321   18.89029
       O    14.62030    0.27803   19.33976
      H1    15.41823    0.15592   19.87806
       H    14.95954    0.33957   12.44352
       O    14.92096   -0.44336   13.03650
      H1    15.59947   -0.21619   13.68987
       H    11.68862  -12.58014   18.88519
       O    11.37932  -11.73074   19.16992
      H1    12.15318  -11.49320   19.75720
       H    13.06937    0.75996   16.51275
       O    12.39886    1.20831   16.01588
      H1    11.59667    1.37656   16.56186
       H     9.94676   -2.85152   15.71468
       O     9.06550   -2.93102   16.14071
      H1     9.23293   -3.84124   16.53255
       H    10.94138   -4.38276   14.69854
       O    11.56699   -3.88212   15.19830
      H1    12.11670   -4.54648   15.68933
       H    15.78258   -8.93639   19.11808
       O    15.33842   -8.80493   18.27995
      H1    16.04778   -8.43810   17.69277
       H     9.16876   -2.13092   20.17041
       O     8.98258   -2.03801   19.21276
      H1     9.65462   -2.62100   18.78334
       H     8.23527   -6.08460   16.89636
       O     9.03929   -5.74220   17.28410
      H1     9.01104   -6.36465   18.04787
       H    19.46939   -7.12230   18.78092
       O    18.99734   -7.21062   19.57627
      H1    18.24662   -6.66125   19.26673
       H    14.98003   -5.10382   12.62716
       O    15.15337   -4.75852   11.76230
      H1    15.94515   -4.25627   11.91243
       H     9.40694   -8.63825   18.41980
       O     8.92742   -8.18620   19.15552
      H1     9.00588   -8.84435   19.90644
       H    17.92063   -6.79661   12.65338
       O    17.65552   -7.02203   13.59689
      H1    17.39713   -7.95286   13.50632
       H    16.33669    1.25804   17.13387
       O    15.51768    1.76101   17.29300
      H1    15.23889    1.32462   18.14009
       H    12.55069   -3.14038   18.35837
       O    11.75820   -3.72999   18.24740
      H1    11.86394   -4.24688   19.09384
       H    17.16325   -6.90410   15.42777
       O    17.19829   -7.11083   16.37217
      H1    18.09598   -6.88365   16.50533
       H    15.56562   -9.30624   14.79477
       O    16.21335  -10.00926   14.83832
      H1    15.78332  -10.71981   14.34186
       H    11.96459   -5.34550   17.42231
       O    11.98195   -6.24115   17.11131
      H1    11.05264   -6.32091   16.91383
       H    14.95727   -2.90968   14.89857
       O    15.84853   -3.17528   14.63449
      H1    16.49015   -2.77332   15.23937
       H    12.51587   -2.18948   15.61521
       O    13.34717   -1.70239   15.68993
      H1    13.35406   -1.26532   14.80221
       H    19.49093  -10.69213   18.10404
       O    19.45956  -11.23270   18.89985
      H1    19.23558  -10.66823   19.63932
       H    12.29288   -7.45501   18.02858
       O    12.50580   -8.30294   18.48953
      H1    13.25381   -8.68908   17.98672
       H    18.34083  -12.67946   15.49620
       O    17.65608  -12.34805   16.15161
      H1    17.45092  -11.48072   15.75316
       H    13.13332   -9.04157   14.25014
       O    13.98980   -8.71745   14.53033
      H1    13.68996   -7.86315   14.86938
       H    11.26273   -9.34369   17.79281
       O    10.41765   -9.76209   17.47859
      H1    10.63815  -10.63130   17.88560
       H    14.15717   -1.82310   17.42173
       O    13.96444   -2.18150   18.28419
      H1    14.77697   -2.61673   18.51730
       H    18.00802   -2.58118   12.70979
       O    17.26289   -2.64184   12.10933
      H1    16.61539   -2.64050   12.85765
       H    15.43337   -5.64319   20.10532
       O    16.17784   -5.37156   19.58936
      H1    16.17068   -5.75292   18.75289
       H    18.25879   -3.67722   16.43564
       O    18.04795   -2.79861   16.78995
      H1    17.80379   -3.04033   17.72421

