90
frame 2 | Written by MDAnalysis XYZWriter (release 2.4.3)
       H    -2.02351   -3.04744  -13.39237
       O    -2.16923   -2.53032  -14.19357
      H1    -1.88408   -1.65813  -13.98435
       H    -0.33178   -2.37515   -7.15524
       O     0.48579   -2.79905   -6.77200
      H1     0.37723   -3.78708   -6.93738
       H     6.73186   -6.69186  -11.85588
       O     7.18754   -5.82476  -11.83938
      H1     7.03976   -5.61645  -12.79189
       H     4.62192   -2.70965   -9.25901
       O     3.86874   -3.12418   -8.80011
      H1     3.98605   -2.82519   -7.89953
       H     0.83393   -2.64048  -12.82215
       O     0.58156   -2.64691  -11.88710
      H1     1.17305   -3.35138  -11.58222
       H     3.08590   -7.80672   -7.19194
       O     2.65684   -8.15766   -7.95890
      H1     3.25677   -8.81502   -8.37873
       H     3.93274   -4.83268   -4.83024
       O     4.61016   -4.64178   -5.47347
      H1     4.58744   -5.39202   -6.03565
       H    -2.86894   -5.43086  -10.83814
       O    -2.97138   -6.37707  -10.49877
      H1    -3.85755   -6.29813  -10.06978
       H     1.99911   -0.70118   -9.88178
       O     1.12027   -0.56422  -10.17745
      H1     0.82190   -1.38057  -10.56793
       H     2.45394   -2.81378   -6.52831
       O     3.25006   -2.37388   -6.17107
      H1     3.71125   -3.16756   -5.77663
       H     2.73418   -4.22555  -10.00966
       O     1.86341   -4.58750  -10.39351
      H1     1.29600   -4.61963   -9.62956
       H    -1.35248   -7.05348  -13.49572
       O    -0.81846   -6.29399  -13.31404
      H1    -0.06627   -6.63581  -12.73537
       H     4.15988   -5.25180  -14.97722
       O     4.22463   -5.98291  -15.58532
      H1     3.46728   -5.93346  -16.17865
       H     2.17299  -10.50032  -10.50084
       O     1.50880   -9.80754  -10.62329
      H1     2.02971   -9.00000  -10.66522
       H     1.85735   -6.04817  -11.20647
       O     1.89764   -6.99501  -11.60605
      H1     2.54488   -6.91183  -12.31010
       H     2.45747   -1.47850  -12.10183
       O     3.38325   -1.43542  -11.88926
      H1     3.71538   -0.63335  -12.33427
       H     6.45641   -1.44155  -10.20742
       O     5.65859   -0.86049  -10.22164
      H1     5.07564   -1.37162  -10.80896
       H    -1.33603   -3.38079  -11.76888
       O    -2.10175   -3.96417  -11.86143
      H1    -1.72492   -4.78651  -12.28910
       H     0.75415   -6.10826  -15.86866
       O     0.42594   -6.96987  -15.69698
      H1     0.14946   -6.87405  -14.77548
       H     1.07129   -8.67601   -7.88671
       O     0.23271   -9.20962   -8.15915
      H1     0.49416   -9.30656   -9.08803
       H    -2.90438   -3.98383   -6.63568
       O    -2.44507   -4.59507   -7.19501
      H1    -1.68484   -4.06948   -7.50137
       H     3.67340   -3.04819  -13.33217
       O     3.93060   -3.82792  -13.88377
      H1     4.35672   -3.25462  -14.62157
       H     0.55054   -5.95332   -7.54661
       O     1.21962   -5.36018   -7.14087
      H1     1.02311   -5.49388   -6.21273
       H     6.82636   -4.71723  -10.54709
       O     6.81444   -4.07019   -9.79577
      H1     7.10702   -4.57139   -9.04405
       H    -1.44165   -6.27517   -9.48890
       O    -0.54398   -6.42848   -9.06522
      H1    -0.65267   -7.27769   -8.65998
       H     3.59621   -6.26286   -8.21346
       O     4.35989   -5.74011   -8.47641
      H1     4.02942   -4.82842   -8.57051
       H     5.21448   -7.09247   -9.80805
       O     5.46234   -7.67921  -10.46133
      H1     4.68651   -7.88115  -11.00125
       H     4.34855    0.13725   -9.34967
       O     3.47269    0.36916   -8.97748
      H1     3.67431    0.13996   -8.04084
       H     4.09879   -7.33019  -14.41813
       O     4.01978   -7.90229  -13.59250
      H1     3.36538   -8.49419  -13.97397
       H     1.57717   -2.75810  -15.37324
       O     1.68173   -2.03606  -14.65683
      H1     1.24290   -1.25713  -15.08084

