90
frame 2 | Written by MDAnalysis XYZWriter (release 2.4.3)
       H     6.20631    3.80939   17.22696
       O     6.20291    4.76453   17.38583
      H1     6.33155    4.87098   18.29958
       H     5.48334    4.16721   12.34574
       O     5.30774    3.71942   11.50605
      H1     4.68487    3.01153   11.73728
       H     4.81439    8.78905   14.43295
       O     4.28581    8.20918   14.98328
      H1     4.39990    7.29992   14.59130
       H     7.09171    2.57699   13.73137
       O     8.00427    2.86403   13.87590
      H1     8.32975    2.69013   12.97486
       H     7.47962    3.07607   11.18591
       O     8.44981    3.05936   11.23471
      H1     8.64064    2.22365   10.75931
       H     2.88450    9.85646   12.42218
       O     3.01993   10.77843   12.62049
      H1     2.70311   10.73085   13.53171
       H     5.09312    4.64825   10.02388
       O     4.94451    5.28265    9.24519
      H1     4.69234    4.61975    8.60121
       H     4.05553    8.32028    9.45328
       O     3.92833    8.61940   10.36993
      H1     4.01862    7.88956   10.97266
       H    10.45888    7.68304   13.96562
       O     9.76642    7.12000   13.61990
      H1    10.28026    6.85480   12.81011
       H     3.78227    5.92487   11.74122
       O     4.08735    6.68747   12.23684
      H1     3.33950    6.89291   12.78936
       H     1.35382    5.18546   11.17572
       O     1.94007    4.44026   11.09409
      H1     1.93628    4.07209   12.04511
       H     4.95362    4.81012   15.21633
       O     4.08762    4.86861   15.75981
      H1     4.45165    5.05795   16.66555
       H     6.84452    7.99356   12.92795
       O     7.26801    7.22428   12.56403
      H1     7.93096    7.08272   13.23575
       H     9.95828    3.91024   11.11556
       O    10.86525    4.28639   11.31224
      H1    11.38987    4.14530   10.50576
       H     0.84403    5.40929   15.27449
       O     1.44607    4.66993   15.34917
      H1     2.25450    5.06800   15.72076
       H     7.06126    9.68613    9.65713
       O     6.41644   10.35934    9.72178
      H1     5.58931    9.75809    9.89230
       H     6.56319    1.73940   16.01278
       O     6.87438    2.00775   16.90109
      H1     7.82835    1.99464   16.80864
       H     2.80126    2.46416   17.54476
       O     3.29197    2.15053   16.77720
      H1     3.44436    2.98446   16.27041
       H     8.36380    8.55772   14.13771
       O     8.00794    8.88415   15.00200
      H1     7.65223    9.77628   14.81211
       H     4.06328    0.88194   13.11606
       O     3.76144    1.53611   12.45364
      H1     3.32529    0.92731   11.86656
       H    11.34613    5.14188   14.99462
       O    10.79664    4.85968   15.66345
      H1     9.90235    5.11467   15.41706
       H     5.29276    8.05485    7.65636
       O     4.38210    7.79460    7.93168
      H1     4.51755    6.94589    8.39263
       H     5.38948    0.10434   14.74113
       O     5.98839    0.82013   14.46425
      H1     6.93251    0.47982   14.64175
       H    10.35368    5.97325   10.87156
       O    10.48501    6.92332   10.81332
      H1     9.66682    7.31318   10.43045
       H     7.71034    7.47930    9.77870
       O     8.17710    8.22580   10.20717
      H1     8.03915    8.02356   11.15456
       H     7.00481    4.61721   13.98083
       O     6.16830    5.03074   13.61500
      H1     6.53402    5.74327   13.05422
       H     5.10111   10.13730   12.34909
       O     5.98106    9.85650   12.68626
      H1     6.11431   10.58668   13.27671
       H     7.11985    6.65734    7.60607
       O     7.38244    6.33932    8.50207
      H1     6.52900    5.90159    8.72026
       H     2.31152    2.18590   13.48774
       O     1.66343    2.91453   13.23634
      H1     1.81379    3.52937   13.95370
       H     7.52294    7.32865   16.72477
       O     8.11012    6.56554   16.73204
      H1     7.45820    5.86244   16.94948

