90
frame 0 | Written by MDAnalysis XYZWriter (release 2.4.3)
       H    -1.61240  -10.97287   -0.76307
       O    -1.57299  -11.59261   -1.46302
      H1    -1.59996  -12.44265   -1.11120
       H    -8.32337  -18.80393    1.07948
       O    -8.76828  -19.12864    0.28792
      H1    -9.65102  -19.30556    0.64972
       H    -0.63418  -17.53922    0.63641
       O     0.30987  -17.60853    0.64851
      H1     0.60724  -16.94289    0.00814
       H    -3.69625  -16.98675   -3.48896
       O    -2.80342  -16.67462   -3.72808
      H1    -2.57688  -17.05540   -4.62237
       H    -5.94965  -17.72538    7.08327
       O    -5.43313  -17.24623    6.34812
      H1    -5.79332  -17.48754    5.43302
       H    -9.35624  -17.12976    3.23720
       O    -8.80373  -17.91927    3.21968
      H1    -9.46090  -18.59510    3.25534
       H    -0.44143  -14.87707    3.48054
       O     0.05245  -15.21745    4.23590
      H1     0.97701  -14.93972    4.00631
       H    -3.31091  -17.31839    3.94043
       O    -2.89986  -17.13341    4.75187
      H1    -2.21632  -17.84867    4.69948
       H    -7.04323  -17.19162    2.52156
       O    -6.41909  -16.56742    2.18223
      H1    -6.75049  -16.11789    1.39422
       H    -5.52037  -11.68781    0.92076
       O    -5.93558  -11.40426    1.72796
      H1    -5.77594  -12.13234    2.39042
       H    -1.53905  -19.96950    2.77663
       O    -1.59610  -19.29674    3.43688
      H1    -0.72105  -18.89183    3.58686
       H    -2.43124  -17.25105    7.37110
       O    -3.21357  -17.54034    7.82903
      H1    -3.88048  -17.27085    7.12645
       H    -4.92004  -13.96211   -0.59426
       O    -4.61885  -13.51549   -1.37134
      H1    -3.69594  -13.67564   -1.33787
       H    -5.62329  -17.89198   -2.83449
       O    -5.38115  -17.85944   -3.79462
      H1    -6.15769  -17.49432   -4.20722
       H    -2.93056  -15.24257    4.72008
       O    -3.30396  -14.35493    4.73730
      H1    -4.16311  -14.46140    4.36226
       H    -6.27314  -13.22870    4.33980
       O    -5.91143  -13.53762    3.47178
      H1    -6.56313  -14.12585    3.14371
       H    -4.41973  -20.11417    0.55711
       O    -3.88488  -20.05265    1.38831
      H1    -4.08235  -19.18892    1.78758
       H    -1.75752  -14.33300   -2.37364
       O    -1.47185  -14.28540   -1.45107
      H1    -0.51468  -14.47388   -1.53228
       H    -1.92791  -15.85681   -0.43891
       O    -2.22648  -16.11789    0.47863
      H1    -2.12375  -15.33216    1.02956
       H    -0.12865  -17.31913    6.59037
       O    -0.06823  -17.51728    5.60120
      H1    -0.03838  -16.63717    5.23317
       H    -7.44866  -13.68820   -2.44683
       O    -6.89120  -14.04159   -3.10375
      H1    -6.03382  -14.10528   -2.71299
       H    -3.38016  -17.04107    1.57454
       O    -3.95427  -17.39672    2.29847
      H1    -4.86596  -17.01463    2.27812
       H     1.79883  -16.05071   -1.64620
       O     1.11980  -15.68013   -1.11851
      H1     1.34917  -14.95318   -0.56461
       H    -7.06297  -15.36290   -0.67650
       O    -6.77575  -14.89034    0.12162
      H1    -7.46926  -14.25217    0.23567
       H    -1.18672  -17.53852   -2.72048
       O    -0.52719  -18.17280   -2.41128
      H1    -1.01501  -18.67439   -1.67261
       H     0.04161  -13.56039    1.08615
       O     0.92599  -13.39723    0.91506
      H1     1.03014  -12.43432    0.82365
       H     2.14229  -18.31338    0.44120
       O     2.93705  -18.76770    0.12892
      H1     3.68855  -18.57306    0.80746
       H     1.08524  -18.18424    4.28271
       O     1.16291  -18.48035    3.37417
      H1     0.60567  -17.95691    2.69697
       H    -2.27435  -13.27495    1.98328
       O    -1.78922  -13.96838    2.42929
      H1    -2.15182  -13.91273    3.34846
       H    -7.97205  -17.17638   -2.41714
       O    -7.29831  -16.50833   -2.09148
      H1    -7.35366  -15.77950   -2.75195

