90
frame 2 | Written by MDAnalysis XYZWriter (release 2.4.3)
       H    -1.78773  -14.42110    2.04458
       O    -2.31677  -14.26790    1.28373
      H1    -3.14649  -13.97212    1.71736
       H     1.49984  -14.34417    6.84339
       O     0.76163  -14.00833    7.39121
      H1     0.20578  -13.69825    6.67207
       H    -1.07059  -16.26805    8.38436
       O    -1.11858  -16.39297    7.43793
      H1    -0.40925  -15.83528    7.13758
       H    -7.46899  -12.95996    2.49051
       O    -7.68062  -13.76257    1.98307
      H1    -6.78262  -14.12783    1.80067
       H    -5.03408  -15.59941    9.42413
       O    -5.99481  -15.81689    9.44357
      H1    -6.26280  -15.57808    8.52774
       H    -0.67828  -17.92144    6.24870
       O    -0.44595  -18.91409    6.20326
      H1    -0.56986  -19.05516    5.25350
       H    -3.41118  -17.48361   10.70797
       O    -3.35561  -17.07718    9.80532
      H1    -2.92555  -17.79521    9.27907
       H    -4.10338  -18.23510   -1.45402
       O    -4.30303  -19.17977   -1.62837
      H1    -5.06937  -19.06108   -2.20743
       H    -4.90760  -15.19428    1.06009
       O    -5.37951  -14.96745    1.88420
      H1    -5.23291  -15.72501    2.46366
       H    -2.08800  -19.41619    7.38661
       O    -2.77464  -19.38815    8.14896
      H1    -3.56604  -19.17118    7.66827
       H    -2.25127  -19.33723    1.25051
       O    -2.68423  -18.92942    1.98408
      H1    -1.93856  -18.87459    2.67568
       H    -3.25615  -13.00623    9.22178
       O    -3.88623  -12.81890    8.52860
      H1    -3.91626  -13.70131    8.08596
       H    -1.89730  -16.32178   10.59016
       O    -1.08731  -15.85050   10.89101
      H1    -0.50116  -16.64727   10.91344
       H    -5.37110  -18.16784    8.09584
       O    -5.07349  -18.43501    7.24783
      H1    -5.75408  -19.11565    6.97973
       H    -7.57202  -14.22716    7.06307
       O    -7.19217  -15.13182    7.01681
      H1    -7.98363  -15.69638    7.21898
       H    -0.83986  -13.81510    4.60325
       O    -0.30323  -13.18267    5.13784
      H1     0.35148  -12.93437    4.53347
       H    -6.37879  -15.83413    5.38632
       O    -5.99144  -16.23104    4.59044
      H1    -6.82909  -16.60709    4.19113
       H    -8.15900  -18.30226    8.25098
       O    -7.80256  -19.19668    8.40341
      H1    -7.13355  -19.13184    9.06914
       H    -8.74789  -18.15743    2.38892
       O    -8.19985  -17.38197    2.60730
      H1    -8.73265  -16.94189    3.26059
       H    -0.75012  -16.78230    0.03171
       O    -0.04438  -16.23057    0.32577
      H1     0.52366  -16.79260    0.83369
       H    -2.59016  -15.40670    6.84330
       O    -3.56773  -15.27633    6.87869
      H1    -3.92441  -16.17913    6.65923
       H     2.49263  -19.04771    8.00450
       O     1.55884  -19.31921    8.19755
      H1     1.04750  -19.22321    7.36883
       H    -2.88544  -17.33880    1.19393
       O    -2.85881  -16.68177    0.44761
      H1    -2.64425  -15.81759    0.90640
       H    -3.24174  -18.68346    5.07643
       O    -3.11974  -17.77289    4.68644
      H1    -3.99123  -17.44537    4.55374
       H    -4.25997  -13.06272    4.56791
       O    -4.05220  -13.49854    3.71246
      H1    -4.76170  -14.10559    3.57851
       H    -5.66881  -19.12425   10.18220
       O    -6.20173  -18.36519   10.29910
      H1    -5.61893  -17.60402    9.98372
       H     2.39904  -17.91730    2.30500
       O     1.46237  -17.57432    2.32866
      H1     1.35804  -17.43440    3.28082
       H    -9.63273  -19.62435    4.97480
       O   -10.25677  -18.98114    5.32593
      H1   -10.66064  -19.55224    6.01476
       H    -1.92812  -16.22053    4.11286
       O    -1.58703  -15.33565    3.86006
      H1    -2.39071  -14.79033    3.98954
       H    -4.36081  -18.81802    2.89371
       O    -5.33136  -18.77835    2.70235
      H1    -5.30228  -18.38565    1.76402

