90
frame 2 | Written by MDAnalysis XYZWriter (release 2.4.3)
       H    -1.22947    1.32171   14.13006
       O    -1.54843    2.16297   14.45288
      H1    -1.03526    2.81933   13.99045
       H    -4.08590    8.01031    9.59521
       O    -3.55405    7.25887    9.30348
      H1    -3.03236    7.72367    8.59570
       H    -4.93435    5.13213   16.56645
       O    -4.89862    5.32223   17.51751
      H1    -4.07646    4.88912   17.85362
       H    -1.85572    5.11153   18.67916
       O    -1.89127    5.10425   17.72808
      H1    -1.33025    4.35912   17.47908
       H     0.38012    3.60146   16.25718
       O    -0.34295    3.18414   16.73926
      H1    -0.66589    2.65331   15.96526
       H    -1.35233    3.90395   10.01381
       O    -1.16003    3.54094    9.13618
      H1    -1.82790    4.07697    8.68949
       H    -4.61782    4.35957    8.53052
       O    -3.73283    4.72211    8.35911
      H1    -3.87348    5.65356    8.68648
       H    -3.87634    2.95465   13.20296
       O    -4.56621    2.27858   13.55415
      H1    -4.03937    1.50187   13.74568
       H    -6.30950    3.57676   10.80656
       O    -5.71905    3.04096   10.23832
      H1    -6.39713    2.50122    9.77570
       H     1.35382    5.18546   11.17572
       O     1.94007    4.44026   11.09409
      H1     1.93628    4.07209   12.04511
       H    -8.91500    2.98940   14.94754
       O    -8.26808    2.81886   14.24723
      H1    -7.78698    2.08699   14.71599
       H    -6.14649   10.90055   14.85861
       O    -5.95679   10.15342   15.44632
      H1    -6.32378    9.47294   14.88330
       H    -6.67288    7.34157   13.64252
       O    -6.95156    7.94626   14.33236
      H1    -7.22904    7.23994   14.99904
       H     0.26549    7.12449   15.79511
       O     0.04724    7.23437   14.88729
      H1    -0.93456    6.97760   14.84987
       H     0.84403    5.40929   15.27449
       O     1.44607    4.66993   15.34917
      H1     2.25450    5.06800   15.72076
       H    -9.22217    6.27685   12.50235
       O    -8.75317    5.78880   11.77310
      H1    -8.60686    4.92288   12.17916
       H    -2.15477    7.54900   10.45372
       O    -1.21543    7.31366   10.74285
      H1    -0.84243    7.29928    9.81843
       H    -6.13881    9.70126   10.80441
       O    -5.25114    9.31012   10.78741
      H1    -4.73492    9.97366   10.38796
       H    -5.33478    4.08577   14.39680
       O    -5.85364    4.38159   15.15742
      H1    -6.64058    3.88819   15.06115
       H    -5.73963    1.03055   11.99125
       O    -5.74067    0.15468   11.59227
      H1    -6.20884    0.45379   10.77324
       H    -7.40227    4.47752   19.03354
       O    -7.34179    4.40711   18.07314
      H1    -6.43982    4.65942   17.90320
       H    -3.41584    5.62713   14.04999
       O    -3.62639    5.01882   13.30441
      H1    -4.49310    5.34944   13.06138
       H    -3.85069    0.17796   15.56510
       O    -3.65160    0.92482   16.16657
      H1    -4.01977    1.64281   15.66503
       H    -2.17876    6.13462   16.17716
       O    -2.40772    6.45945   15.26032
      H1    -2.76381    7.33999   15.45094
       H    -2.27681    5.01342   12.16453
       O    -1.64875    4.80910   11.41418
      H1    -1.38979    5.68616   11.15571
       H    -5.71952    7.16268   11.69292
       O    -6.12087    6.38185   12.09195
      H1    -7.08318    6.40413   11.78932
       H    -2.53134    0.50647   10.65140
       O    -1.80404   -0.13474   10.93910
      H1    -1.04328    0.45793   11.17524
       H     0.64182    7.52057   11.51359
       O     1.36203    7.65052   12.19270
      H1     0.97844    7.37786   12.99096
       H    -3.37276    9.36141   16.04377
       O    -3.78162    8.70626   16.61831
      H1    -4.71829    8.69371   16.44244
       H    -2.61553    2.37229    9.85262
       O    -3.31745    1.73148   10.00810
      H1    -4.12969    2.30328   10.11624

