90
frame 6 | Written by MDAnalysis XYZWriter (release 2.4.3)
       H    -3.91952    2.34334   -2.06196
       O    -3.75916    1.68380   -2.77159
      H1    -4.50955    1.76545   -3.33525
       H    -1.98572    4.06098    0.33345
       O    -1.33322    3.82851   -0.36980
      H1    -1.40901    2.86245   -0.28637
       H     1.94593    3.71241    2.02912
       O     1.66143    4.32071    2.74876
      H1     1.56670    5.13361    2.31578
       H     0.02327    5.27256    4.40393
       O     0.40275    5.92047    5.03951
      H1     1.38244    5.80017    5.07309
       H     2.75337    5.24448    0.01467
       O     3.06630    4.35615   -0.15558
      H1     2.44702    3.67654   -0.19663
       H    -2.72857    7.64498   -0.28372
       O    -3.38877    7.02991    0.04399
      H1    -3.63209    6.54129   -0.72373
       H     1.12054    1.38634   -0.91970
       O     1.81131    1.89637   -0.50080
      H1     2.50928    1.24378   -0.36210
       H    -4.70877    5.64229   -3.43111
       O    -5.01547    5.72365   -2.50256
      H1    -5.70469    5.12200   -2.39755
       H    -3.25651    5.83638    1.30463
       O    -3.31456    4.94087    1.68642
      H1    -2.63764    4.90024    2.41765
       H    -2.82481    1.98396    4.38058
       O    -3.80160    1.91901    4.29817
      H1    -3.83460    1.24076    3.57998
       H     0.64428    7.48215    0.45503
       O     1.44531    7.05793    0.77207
      H1     2.03400    7.74977    1.14701
       H    -2.10949    6.61085   -3.14188
       O    -1.33925    6.01137   -3.04347
      H1    -1.56447    5.64902   -2.17570
       H    -4.36172    1.35479    1.34444
       O    -3.79956    0.66165    1.74714
      H1    -4.13739   -0.21137    1.31447
       H     1.75375    4.35083   -3.09573
       O     1.76267    3.37801   -2.91124
      H1     2.22328    3.31784   -2.07843
       H     2.45703    7.10593   -0.61975
       O     2.94808    7.15246   -1.47894
      H1     2.37764    6.71953   -2.17877
       H    -1.87059   -0.66721   -4.91714
       O    -2.12677    0.26086   -4.97463
      H1    -1.36925    0.71937   -4.59598
       H    -1.80015   -1.24282   -2.01163
       O    -0.86874   -1.13507   -2.16438
      H1    -0.70753   -0.21976   -2.35471
       H    -1.46184    3.75222    3.63359
       O    -1.67823    4.67216    3.59856
      H1    -2.34074    4.89675    4.27876
       H    -4.64148    4.94447   -5.81662
       O    -4.16724    5.47946   -5.12002
      H1    -3.45529    4.84596   -4.89934
       H    -0.92289    1.90345   -2.47365
       O    -0.06100    1.49413   -2.55986
      H1     0.50208    2.17901   -2.86528
       H     2.12668    6.23556   -4.24706
       O     1.51967    6.04545   -3.50965
      H1     0.68674    6.21657   -3.96321
       H    -0.74004    9.35309    0.08217
       O    -0.85038    8.48763   -0.28661
      H1    -0.54099    8.58967   -1.21656
       H    -1.27561    0.35496    0.33276
       O    -1.73403    1.05484   -0.15161
      H1    -2.61077    1.16326    0.18883
       H    -5.45180    3.51547    0.15631
       O    -4.68111    2.94630    0.22765
      H1    -4.01582    3.52664    0.62889
       H    -0.32892    2.03129    4.88780
       O    -0.72466    1.50994    4.14896
      H1    -0.19962    1.58029    3.33938
       H     1.21367    1.64155    1.13948
       O     1.08390    1.31173    2.05366
      H1     1.61224    0.54850    2.13489
       H    -4.85177    5.52316    2.27674
       O    -5.72443    5.41559    2.68515
      H1    -5.93611    6.39808    2.87380
       H    -2.53151    3.21272   -3.83891
       O    -2.13025    3.94870   -4.30194
      H1    -1.85533    4.63776   -3.66050
       H     0.59867   -1.04232    0.81304
       O     1.06766   -1.37338    0.03880
      H1     0.36841   -1.33264   -0.65433
       H    -4.37823   -1.23366   -2.32589
       O    -3.70479   -0.92963   -1.66738
      H1    -3.74446   -0.01389   -1.86048

