90
frame 0 | Written by MDAnalysis XYZWriter (release 2.4.3)
       H   -16.47276   18.95745   13.87355
       O   -17.23277   18.62387   13.39813
      H1   -17.43027   17.87413   13.92564
       H   -14.96674   14.72064    4.70422
       O   -14.19833   15.09385    5.18236
      H1   -13.61365   15.04607    4.43560
       H   -17.62354   15.59942    3.72825
       O   -17.53702   15.32737    2.78191
      H1   -18.44940   15.38987    2.53035
       H   -14.42263   17.49479    9.02580
       O   -15.30593   17.82495    9.40377
      H1   -15.84642   17.82899    8.60896
       H   -14.70180   16.46668   13.18987
       O   -14.22108   17.25156   12.82326
      H1   -13.28243   17.08332   13.08171
       H    -9.80555   17.59488    8.35266
       O    -9.53437   16.69744    8.64629
      H1   -10.30979   16.32332    9.09202
       H   -14.96307   13.10352    2.99257
       O   -15.72201   13.43214    3.52762
      H1   -16.15552   13.84888    2.73624
       H   -11.06854   13.77131   10.13608
       O   -10.73635   13.67589    9.26136
      H1   -11.48688   13.54151    8.70499
       H   -13.80857   18.69951    2.99056
       O   -13.27846   18.09978    2.50632
      H1   -12.36396   18.51393    2.43916
       H   -17.09529   17.28411   12.00076
       O   -16.99012   16.59500   11.35320
      H1   -16.47013   17.11574   10.66365
       H   -14.71796   18.90140   13.59064
       O   -14.79389   19.47972   14.33921
      H1   -14.94722   20.33448   13.90961
       H   -13.68787   17.94329    0.81822
       O   -13.82840   17.95427   -0.16496
      H1   -14.29671   18.76957   -0.31308
       H   -16.43066   18.27099    5.89287
       O   -16.45154   18.34432    6.91612
      H1   -17.43018   18.45578    7.12930
       H   -18.59109   16.70118    8.62009
       O   -18.81283   17.52529    9.03674
      H1   -18.70963   17.40491    9.98784
       H   -12.32377   15.36874    2.40953
       O   -12.14359   15.70640    3.29110
      H1   -12.80846   16.48438    3.22638
       H   -13.34054   16.43582   10.80345
       O   -12.77883   16.92626   10.23414
      H1   -12.69510   17.76145   10.70448
       H   -14.34802   17.72770    6.91558
       O   -13.63628   17.14169    7.22094
      H1   -13.94549   16.27836    6.90572
       H   -16.92246   20.00227    1.49947
       O   -17.77718   19.59390    1.78960
      H1   -17.57162   18.66185    1.53663
       H    -9.55877   15.84186    4.89635
       O    -9.55529   16.44525    4.13880
      H1   -10.43360   16.23977    3.74633
       H   -18.25165   15.12035   10.89639
       O   -18.47451   14.17831   10.99604
      H1   -19.43129   14.23661   10.98400
       H   -16.86562   12.71282   11.18172
       O   -15.98111   12.43013   10.94546
      H1   -15.69746   13.32840   10.63325
       H    -9.77781   19.15265    1.95267
       O   -10.60229   19.36635    2.36251
      H1   -10.37532   19.69455    3.24913
       H   -17.97623   17.95530    4.31671
       O   -17.09558   18.36535    4.28229
      H1   -17.40036   18.96805    3.61420
       H   -16.46998   16.72091    1.27140
       O   -16.48782   17.39974    0.52704
      H1   -15.52878   17.51775    0.31394
       H   -10.30690   18.70483    5.18607
       O   -11.21420   18.88321    5.40463
      H1   -11.68910   18.02969    5.39970
       H   -18.63319   12.86405    9.46615
       O   -19.09526   12.07972    9.09487
      H1   -18.52734   11.74406    8.39069
       H   -12.03831   18.51228    7.90971
       O   -11.47087   19.15580    8.34341
      H1   -11.33905   19.66545    7.50558
       H   -12.74995   13.67593    5.87761
       O   -12.09796   13.39504    6.55377
      H1   -11.28115   13.30720    6.08999
       H   -14.06520   14.45230   11.48253
       O   -14.56074   14.49601   10.70245
      H1   -15.24328   15.07950   10.95822
       H   -16.12553   11.83356    4.42697
       O   -16.06780   10.88150    4.39896
      H1   -15.69639   10.72877    5.27367

