90
frame 3 | Written by MDAnalysis XYZWriter (release 2.4.3)
       H    -1.03980    1.49666   14.06053
       O    -1.35277    2.34032   14.43826
      H1    -1.39386    2.84417   13.62204
       H     0.54367    5.41097    7.21967
       O     0.74688    4.68042    6.63708
      H1     1.07773    5.20772    5.88514
       H     6.05316    3.65204   12.05613
       O     5.92087    3.34670   11.16312
      H1     5.28468    2.62551   11.33513
       H     4.69040    9.04607   15.15063
       O     3.78180    8.80262   14.95883
      H1     3.78330    7.90044   14.52303
       H     1.97105    1.21771    7.01120
       O     1.84006    0.59586    7.77173
      H1     1.80269    1.21549    8.53615
       H     0.48364    2.81588   16.86061
       O    -0.44349    2.73046   17.13817
      H1    -0.78341    2.10532   16.47575
       H     2.64733   -0.26055   14.78946
       O     3.38913    0.39641   14.69405
      H1     2.95103    1.23751   15.05862
       H     5.73548    4.53809    9.87797
       O     5.32649    5.23132    9.30400
      H1     4.99948    4.62620    8.67760
       H     3.88336    8.27920    9.95860
       O     4.02356    8.63693   10.83972
      H1     4.21942    7.75522   11.22220
       H    -1.37416    4.32199   10.55333
       O    -1.52499    3.63386    9.88363
      H1    -2.30982    3.99667    9.40992
       H     1.36998    3.45416    7.96337
       O     1.82076    3.19267    8.83737
      H1     1.78025    3.98571    9.32450
       H     4.49664    0.03364   10.51925
       O     4.95011   -0.78542   10.24592
      H1     5.53285   -0.88194   11.05101
       H     4.76563    2.52693    7.37721
       O     4.17050    3.34672    7.44312
      H1     3.55228    2.96597    8.09429
       H     4.55386    5.55824   12.29328
       O     4.16516    6.39144   12.59978
      H1     3.30584    6.17918   12.18648
       H     0.94577    0.16355   10.39755
       O     1.72503   -0.29605   10.69481
      H1     1.55711   -1.13741   10.25430
       H     1.55186    5.66355   11.44864
       O     2.18724    4.89481   11.25426
      H1     1.78634    4.21259   11.80556
       H     4.66870    4.82889   14.64455
       O     4.04416    4.91573   15.42573
      H1     4.73363    5.17166   16.04930
       H     0.42422    6.94818   16.38133
       O     0.15189    7.13292   15.51447
      H1    -0.80372    6.88456   15.46528
       H     0.71244    4.13873   15.48805
       O     1.59744    3.80756   15.35092
      H1     2.23806    4.49781   15.29810
       H    -2.01776    6.45999   10.15702
       O    -1.09965    6.61111   10.52983
      H1    -0.64512    6.38788    9.69174
       H    -0.05576   -1.08179   13.71955
       O    -0.36911   -0.18144   13.95195
      H1    -0.60188   -0.28996   14.93928
       H     3.24749    2.73433   17.31996
       O     3.84750    2.22358   16.72339
      H1     4.01509    2.97984   16.13791
       H     3.34030    0.73479   13.00020
       O     3.52275    1.09307   12.11058
      H1     2.82490    0.54480   11.64905
       H    -0.08953    1.97283   12.01063
       O    -0.44173    1.45955   11.26532
      H1    -0.82492    2.11323   10.70978
       H     0.78864    7.32483    7.53060
       O     0.52412    6.72452    8.22225
      H1    -0.41569    7.08339    8.09719
       H    -1.99367    5.08710   12.79315
       O    -1.03275    4.99955   12.55356
      H1    -0.99813    5.59191   11.75690
       H     0.47498    7.76789   11.61032
       O     0.95231    7.52393   12.41371
      H1     0.20573    7.10522   12.92574
       H     7.23680    4.69662   14.09061
       O     6.39892    4.70575   13.60789
      H1     6.47607    5.61044   13.20909
       H     2.17941    2.41118   12.87629
       O     1.26516    2.76347   12.88004
      H1     1.27623    3.22365   13.76010
       H     2.15740    8.89573   10.74166
       O     1.43444    9.38262   10.23577
      H1     1.75268    9.37000    9.33574

