90
frame 3 | Written by MDAnalysis XYZWriter (release 2.4.3)
       H     6.45687   -4.32128   -4.47177
       O     6.34349   -5.30126   -4.44302
      H1     5.47209   -5.40268   -4.89884
       H     7.88790    1.37242   -3.23024
       O     7.12937    1.96386   -3.07407
      H1     6.45893    1.36712   -3.48208
       H     5.20483   -0.70590   -5.90760
       O     5.43016   -0.29835   -6.71765
      H1     6.11390   -0.91377   -7.04313
       H     2.51924    1.68997   -9.17259
       O     1.98078    2.30707   -9.63249
      H1     1.83995    1.85719  -10.44948
       H     0.01402   -2.97609   -7.52179
       O     0.34871   -3.04222   -6.64311
      H1     0.59977   -4.00790   -6.58732
       H    -2.58479    0.12269   -5.22442
       O    -2.24901   -0.50145   -4.53948
      H1    -1.37387   -0.13007   -4.35950
       H     0.89267   -5.28266   -1.44104
       O     0.07872   -5.42864   -2.04147
      H1    -0.25177   -4.52269   -2.13085
       H     3.76907   -2.74368   -9.61745
       O     3.03744   -3.19048   -9.17560
      H1     2.96315   -2.72160   -8.31122
       H     2.23724   -5.07580   -2.69557
       O     2.45702   -4.19636   -3.03419
      H1     2.99653   -3.85422   -2.25180
       H     3.68876   -2.78311   -0.60792
       O     3.20440   -3.61737   -0.51183
      H1     3.80922   -4.09336    0.08875
       H     7.52523   -2.34287   -6.02158
       O     7.12371   -2.25174   -6.86524
      H1     7.14869   -3.19096   -7.18910
       H     3.66525   -4.26552   -4.59042
       O     3.95825   -4.33389   -5.52228
      H1     3.15477   -4.77305   -5.91642
       H     2.00474   -0.55064  -10.02229
       O     1.62527   -0.33930  -10.91517
      H1     1.04117   -1.02137  -11.17834
       H     1.88958   -2.23220   -6.74632
       O     2.83929   -2.09082   -6.79809
      H1     3.20695   -2.93758   -6.43629
       H    -0.08634   -6.07487   -3.95853
       O    -0.38510   -6.40497   -4.82351
      H1    -1.04841   -7.06813   -4.56679
       H    -3.26593   -1.72493   -5.11838
       O    -3.79812   -2.52043   -5.31079
      H1    -4.59726   -2.09483   -5.73527
       H     5.15477   -0.80223   -3.76663
       O     5.14763    0.15946   -3.96638
      H1     4.13996    0.27582   -4.12150
       H    -1.45115   -2.25472   -7.85083
       O    -0.97204   -2.04603   -8.64827
      H1    -0.60759   -1.15574   -8.57691
       H     5.74518    1.65883   -6.65747
       O     5.73901    2.65236   -6.73096
      H1     4.78428    2.82747   -6.66813
       H    -0.26828    1.71308   -8.06988
       O    -0.41525    0.85121   -8.51826
      H1     0.17307    0.83406   -9.28312
       H    -2.55803   -3.80507   -5.73615
       O    -2.04401   -4.50387   -6.13538
      H1    -1.49316   -4.82545   -5.39180
       H     1.30888   -5.65449   -7.51570
       O     1.70605   -5.50586   -6.67131
      H1     1.52336   -6.34700   -6.21360
       H     1.43328   -1.61666   -4.17923
       O     2.26001   -1.11057   -4.34793
      H1     2.42842   -1.47575   -5.26665
       H     0.76892   -3.11537   -3.47536
       O    -0.06951   -2.67742   -3.71502
      H1    -0.16237   -2.93448   -4.63730
       H     3.81681   -6.21513   -8.40559
       O     4.28914   -5.41355   -8.70442
      H1     3.59155   -4.72888   -8.73443
       H     0.82578    0.99137   -4.01169
       O     0.01772    1.05192   -3.56559
      H1    -0.27769    1.91466   -3.86402
       H     3.54381   -0.48160   -0.13795
       O     3.40788   -0.97771   -1.05586
      H1     4.00708   -0.45785   -1.59618
       H     4.35612    0.44661   -9.12470
       O     3.48563    0.19294   -8.72133
      H1     3.74683   -0.41082   -7.99454
       H     0.37966    0.16927   -1.93546
       O     0.79431   -0.05275   -1.05702
      H1     1.47788   -0.74723   -1.17654
       H    -1.37166   -2.86710   -2.41567
       O    -2.04926   -3.14515   -1.76748
      H1    -1.73811   -2.59919   -0.97043

