90
frame 3 | Written by MDAnalysis XYZWriter (release 2.4.3)
       H    15.93936   17.00119  -14.07394
       O    15.33279   16.69091  -13.35137
      H1    14.38723   16.99237  -13.65074
       H    18.81154   16.04263  -17.15097
       O    19.50923   16.31754  -16.50996
      H1    19.18256   17.26160  -16.36277
       H    16.09068   11.98550  -14.17793
       O    17.04511   12.07112  -14.33877
      H1    17.31601   11.38332  -15.01492
       H    12.35630    8.61229  -13.35737
       O    11.55738    8.32517  -13.78506
      H1    11.76441    7.40136  -14.07659
       H    18.39611    9.12739   -8.46241
       O    18.39641    9.51946   -9.30937
      H1    17.48424    9.60585   -9.64952
       H    18.06141   14.56246  -18.76005
       O    17.58253   15.20805  -18.20966
      H1    17.34513   14.65460  -17.42834
       H    12.06896   16.09200  -16.59175
       O    12.97233   16.01030  -16.26560
      H1    13.29209   15.11404  -16.42033
       H    14.43530   10.77217  -16.47382
       O    15.39577   10.76298  -16.25782
      H1    15.58536   10.05089  -16.91723
       H    16.96643    7.08810  -15.94401
       O    17.77188    6.59145  -15.92600
      H1    18.30900    7.06295  -16.54535
       H    16.63919   13.22761  -15.60153
       O    16.41210   13.98394  -16.14220
      H1    15.94249   13.58097  -16.92035
       H    15.76288    8.26229  -14.23206
       O    15.12140    8.55713  -14.90540
      H1    15.55016    9.40082  -15.15869
       H    18.33795    7.78704  -19.71802
       O    18.61293    7.35771  -18.89502
      H1    18.53385    6.43517  -19.10637
       H    15.72753    8.67394  -18.57489
       O    16.22896    8.39850  -17.74809
      H1    17.04032    8.02741  -18.13917
       H    13.48812   12.97342  -17.88375
       O    14.05632   13.76138  -17.81401
      H1    13.82881   14.32613  -18.54318
       H    14.98545   13.97102  -14.57752
       O    14.49605   13.70944  -13.84007
      H1    14.68323   14.46408  -13.31166
       H    14.62717    6.87730  -11.66071
       O    14.20042    7.24824  -10.90864
      H1    14.41824    8.15574  -11.13128
       H    18.61069   15.73956  -14.24769
       O    18.84727   16.01976  -13.37545
      H1    18.09535   15.64287  -12.89624
       H    18.39919   15.02598   -9.84347
       O    17.50525   14.86162  -10.26095
      H1    17.45070   13.84159  -10.17627
       H    14.94947    6.96689  -16.32882
       O    14.81900    6.08968  -16.67241
      H1    14.63624    5.59532  -15.89049
       H    12.04434    8.31278  -18.29532
       O    12.97765    8.24315  -18.12816
      H1    13.01945    7.53459  -17.50899
       H    18.11947   12.30200  -12.60004
       O    19.03532   12.07898  -12.25432
      H1    18.94842   11.13231  -12.41066
       H    19.55840    8.65795  -11.94242
       O    19.62807    9.25433  -12.70951
      H1    18.78308    8.93157  -13.17940
       H    19.16368   12.76903  -17.37682
       O    19.19881   11.98410  -16.80141
      H1    19.57355   12.14421  -15.95747
       H    16.66461    8.29395  -12.13645
       O    16.93337    7.91962  -12.99772
      H1    16.60152    6.99644  -12.88736
       H    13.10241   10.98783  -12.84456
       O    13.33010   10.35180  -12.11760
      H1    13.03381   10.91364  -11.36351
       H    19.45314    4.32639  -14.49651
       O    19.16711    5.04304  -13.93383
      H1    18.71299    5.65780  -14.46777
       H    14.85581   10.23716  -11.58186
       O    15.73983   10.04816  -11.18759
      H1    16.18714   10.86840  -10.99620
       H    18.41420   12.09456  -10.54507
       O    17.59316   12.20633  -10.01699
      H1    18.04641   12.17333   -9.09936
       H    12.19580   10.74300  -17.18854
       O    13.02297   11.21012  -17.34639
      H1    13.09884   11.15507  -18.30693
       H    13.06646   13.00532  -13.84426
       O    12.22279   12.53213  -13.78717
      H1    11.91640   12.51594  -12.88514

