90
frame 3 | Written by MDAnalysis XYZWriter (release 2.4.3)
       H   -11.29494   -2.69403   -0.19339
       O   -11.39076   -1.75925   -0.39657
      H1   -10.52673   -1.37843   -0.10516
       H   -10.94862    2.35368    4.37546
       O   -10.91879    1.60120    5.00143
      H1   -11.54967    0.97748    4.54163
       H   -12.77413   -4.45838    0.03213
       O   -11.87871   -4.57343   -0.29366
      H1   -11.54028   -5.07278    0.48102
       H    -5.58164   -1.05950    3.63183
       O    -5.24100   -1.68694    2.99800
      H1    -5.53165   -1.30115    2.14331
       H    -7.28621   -6.59014   -0.72994
       O    -8.17325   -6.77243   -0.34335
      H1    -8.18615   -6.00798    0.29436
       H    -8.83246   -2.58422    3.43626
       O    -8.23800   -1.88048    3.20481
      H1    -7.36158   -2.29368    3.17376
       H   -12.61595    1.20036    0.85635
       O   -12.73231    0.25502    1.02255
      H1   -12.38138   -0.13578    0.22256
       H    -6.90490    2.42050    3.71817
       O    -7.83933    2.50982    3.52789
      H1    -8.06392    1.65459    4.00214
       H    -9.48541   -1.28495    1.52239
       O    -9.17975   -0.61672    0.86714
      H1    -8.22836   -0.92767    0.76416
       H    -5.06525   -3.37752    2.34840
       O    -5.16379   -4.32149    2.02683
      H1    -4.64397   -4.77061    2.73013
       H    -7.18422   -2.71219    0.62975
       O    -6.61212   -1.97119    0.47391
      H1    -6.26072   -2.34532   -0.34591
       H   -10.96534   -2.33541   -3.53353
       O   -10.23581   -1.93708   -4.06550
      H1    -9.38685   -2.22438   -3.71066
       H   -12.22632   -1.13831    4.40322
       O   -12.48069   -0.83280    5.29112
      H1   -11.78970   -1.18617    5.85547
       H    -7.55558   -0.31565   -2.77808
       O    -7.49560   -1.07466   -3.42233
      H1    -6.80621   -1.59478   -2.95853
       H   -14.40628   -0.70918    1.56651
       O   -15.10201   -1.35437    1.61655
      H1   -14.72936   -1.86696    2.38528
       H   -10.16026   -4.58601   -1.72047
       O    -9.43244   -5.04347   -2.13001
      H1    -9.05485   -5.49079   -1.36026
       H    -9.85898    0.93205    1.77417
       O   -10.07830    1.83500    2.14986
      H1    -9.32229    2.08407    2.73118
       H    -6.88295   -4.70158    1.68235
       O    -7.79954   -4.64222    1.30843
      H1    -8.35439   -4.80041    2.03702
       H    -6.75198    1.67712   -2.52385
       O    -7.39576    1.11995   -2.04121
      H1    -6.87681    0.87307   -1.24917
       H   -11.09437    2.46876   -0.84391
       O   -11.50512    2.65427   -0.03118
      H1   -10.88470    2.43056    0.66265
       H    -8.40867    2.57345   -1.27718
       O    -8.54183    3.49052   -0.93892
      H1    -8.96545    3.96224   -1.66994
       H   -12.17807   -2.44251    2.80579
       O   -11.46697   -1.71601    2.75370
      H1   -11.86024   -1.14070    2.10445
       H    -9.65179   -4.56690    5.53215
       O    -9.95290   -4.32206    6.43932
      H1    -9.19649   -4.39018    6.96884
       H   -11.44952   -6.92353    1.72747
       O   -11.59334   -5.99672    1.92520
      H1   -12.25676   -6.12577    2.63105
       H    -6.92287   -0.08157    5.44018
       O    -6.06917   -0.57418    5.27690
      H1    -5.79687   -0.87555    6.16675
       H   -14.20328   -2.90437    4.01912
       O   -13.82391   -3.07471    3.13072
      H1   -14.15320   -3.89426    2.86652
       H    -5.39784    0.95232    0.76683
       O    -6.29141    0.85457    0.48778
      H1    -6.77430    1.29498    1.16729
       H    -9.97821   -5.59423    3.22572
       O    -9.22246   -5.41848    3.79505
      H1    -9.20558   -6.32449    4.20053
       H    -9.52422    0.61393    4.87890
       O    -8.55742    0.33244    4.91691
      H1    -8.59070   -0.50968    4.44408
       H   -12.29525   -2.88059   -1.93918
       O   -12.47023   -3.00642   -2.83872
      H1   -13.42908   -2.79413   -2.86402

