90
frame 3 | Written by MDAnalysis XYZWriter (release 2.4.3)
       H    -6.63943    2.37438   -6.06264
       O    -6.72375    3.30790   -5.85225
      H1    -6.16118    3.66818   -6.54792
       H   -10.25546    7.37487  -12.56000
       O    -9.93279    6.42703  -12.49082
      H1   -10.22507    6.14382  -13.35278
       H    -7.98529    0.64066   -8.94778
       O    -8.55428   -0.13552   -8.99361
      H1    -8.91954   -0.43312   -8.12272
       H    -3.55492    3.62712  -12.99016
       O    -4.07680    3.97816  -13.68093
      H1    -4.84495    3.35330  -13.79908
       H    -3.20362    8.68066  -11.90001
       O    -2.50860    9.32917  -11.90096
      H1    -2.61025    9.81751  -11.02551
       H    -5.30601    1.61449  -14.96210
       O    -6.23080    1.82312  -14.78251
      H1    -6.64369    1.93224  -15.64707
       H    -6.12683    6.24494  -15.57895
       O    -6.13699    6.78915  -14.81903
      H1    -6.45812    6.13653  -14.17321
       H    -2.86921    7.69102  -15.07066
       O    -3.76589    8.16695  -14.86701
      H1    -4.35636    7.44429  -14.74301
       H    -1.73523    3.86245  -10.71488
       O    -2.11162    3.08948  -11.20226
      H1    -2.76252    2.80600  -10.49846
       H    -7.19497    9.15400  -11.31116
       O    -6.41582    8.74307  -10.96982
      H1    -6.75366    8.21721  -10.18308
       H    -7.37072    7.68338   -7.81736
       O    -6.97405    7.51853   -8.70425
      H1    -6.49315    6.65498   -8.51064
       H    -8.82502    8.26445  -15.57502
       O    -7.98212    8.50834  -15.97947
      H1    -7.38861    7.96897  -15.41284
       H    -9.45589    0.28609  -10.79778
       O    -9.75022    1.06357  -11.27438
      H1   -10.10058    0.72027  -12.10717
       H    -7.62801    4.41062  -12.44226
       O    -7.29927    5.26103  -12.15418
      H1    -8.17248    5.76075  -12.16724
       H    -3.19989    1.06038  -15.56789
       O    -3.52701    1.25076  -14.68231
      H1    -3.61074    2.23551  -14.70074
       H    -4.63400    6.33336  -12.39422
       O    -4.30595    7.04871  -11.77528
      H1    -5.17419    7.54444  -11.59840
       H    -5.07260    5.23732   -7.59483
       O    -6.03373    5.22062   -7.83271
      H1    -5.99254    5.07038   -8.78244
       H    -3.97510   -0.53260  -11.99784
       O    -3.56364    0.09506  -11.42089
      H1    -4.19826    0.84263  -11.65217
       H    -8.35013    1.93154  -12.11532
       O    -7.92004    2.63590  -12.63350
      H1    -7.34894    2.19065  -13.29862
       H    -9.71438    2.93100   -8.56409
       O    -9.61203    3.23834   -9.48319
      H1   -10.01101    2.51101   -9.98946
       H    -3.42061    9.73652   -8.64508
       O    -4.03806    9.03200   -8.59579
      H1    -4.41831    8.96800   -9.51556
       H    -6.02579    4.93378  -10.98073
       O    -5.18186    4.77015  -10.48561
      H1    -4.58895    5.38298  -10.97161
       H   -10.53384    4.97424   -9.77520
       O   -11.29359    5.54706   -9.90088
      H1   -10.83640    6.26682  -10.38328
       H    -6.47930    2.92489   -9.03614
       O    -7.18195    2.28129   -8.90292
      H1    -7.97136    2.75331   -9.20547
       H    -1.56327    7.47184   -7.40402
       O    -2.30671    6.93209   -7.72092
      H1    -2.87529    7.64939   -8.09652
       H    -2.09434    6.70407  -10.86660
       O    -1.76479    5.97239  -10.28346
      H1    -1.84442    6.35311   -9.35463
       H    -3.08553    4.06079   -6.73234
       O    -3.58460    4.81205   -6.37860
      H1    -3.21157    5.56751   -6.81550
       H    -2.12759    1.11381   -8.81039
       O    -3.05393    1.37927   -8.95711
      H1    -3.19816    0.77085   -9.74774
       H    -5.29342    3.15275  -11.23497
       O    -5.27256    2.27475  -11.62022
      H1    -5.87690    1.82532  -11.05322
       H    -3.54677    4.71987  -15.38640
       O    -2.87121    5.03963  -16.00784
      H1    -2.02083    5.11296  -15.52717

