90
frame 3 | Written by MDAnalysis XYZWriter (release 2.4.3)
       H   -12.80590  -16.78599   -7.27136
       O   -13.25986  -15.98319   -7.29695
      H1   -12.83013  -15.53403   -6.59258
       H   -10.94025  -14.49452    0.96289
       O   -11.34135  -13.64486    1.28656
      H1   -10.67757  -13.27551    1.84307
       H   -11.60875  -13.00712   -2.83688
       O   -12.30769  -13.31495   -3.48249
      H1   -12.64889  -14.11712   -3.01287
       H    -8.38230  -13.72665   -1.46674
       O    -8.60254  -14.60220   -1.83644
      H1    -9.00478  -14.99008   -1.04522
       H    -8.86936  -15.03732   -6.67591
       O    -9.75796  -15.06007   -6.29129
      H1    -9.95323  -14.09062   -6.38366
       H   -18.86890  -14.44382   -4.26780
       O   -18.38608  -13.93694   -3.57058
      H1   -18.79748  -13.09772   -3.61416
       H    -6.93587  -19.23462   -3.31382
       O    -5.97594  -19.18408   -3.48905
      H1    -5.85722  -18.23606   -3.70925
       H    -9.63372  -15.26611   -3.25650
       O   -10.09952  -15.95776   -3.79002
      H1   -10.02274  -15.57980   -4.66637
       H   -19.16714  -15.78159   -6.61903
       O   -18.76974  -14.83006   -6.58628
      H1   -17.84481  -15.13219   -6.36239
       H   -14.41809  -13.24422    0.16376
       O   -14.48040  -12.94845   -0.72557
      H1   -15.37988  -12.61050   -0.76257
       H   -11.37682  -13.00350   -5.22200
       O   -11.26443  -12.72017   -6.13442
      H1   -12.12430  -12.42188   -6.41880
       H   -17.28108  -16.81072   -2.55423
       O   -18.01153  -17.38942   -2.93693
      H1   -17.69235  -18.22991   -2.65557
       H   -12.51694  -18.94125   -6.65460
       O   -11.84103  -18.41876   -7.05673
      H1   -11.06941  -18.69983   -6.54927
       H   -19.01362  -18.25708   -9.10882
       O   -18.62448  -18.90423   -8.44692
      H1   -18.74971  -18.40762   -7.60774
       H   -14.75215  -14.69461   -3.21151
       O   -14.25083  -14.99349   -2.45594
      H1   -14.27619  -14.19362   -1.88501
       H   -15.36964  -15.82955   -1.44620
       O   -16.13836  -16.43671   -1.24364
      H1   -16.76250  -15.79643   -0.88377
       H   -15.31253  -17.82628   -0.29233
       O   -14.69823  -18.55796   -0.28929
      H1   -14.35798  -18.57441   -1.24570
       H   -17.43939  -18.47211    3.54156
       O   -18.10183  -18.83052    2.96815
      H1   -17.57562  -18.88680    2.19351
       H   -13.46752  -17.74595    0.75713
       O   -12.72550  -17.42014    1.25276
      H1   -12.19493  -18.23703    1.30379
       H   -10.95497  -16.79954    0.96149
       O   -10.09616  -16.45490    0.67447
      H1    -9.53712  -16.95975    1.22729
       H   -13.56971  -18.58761   -3.28054
       O   -13.85505  -19.40126   -2.79264
      H1   -14.77374  -19.43060   -3.15088
       H   -14.79456  -12.35625   -4.58392
       O   -14.69769  -11.43731   -4.33233
      H1   -13.88683  -11.43772   -3.80355
       H   -16.93163  -17.92867   -9.15947
       O   -16.39982  -17.26280   -9.58393
      H1   -17.07659  -16.88709  -10.21072
       H   -13.05208  -14.03625    1.97503
       O   -14.00214  -14.25561    1.84291
      H1   -14.50322  -13.95031    2.58322
       H   -15.13801  -16.23220   -7.09453
       O   -16.07853  -16.21442   -7.19349
      H1   -16.06671  -16.69772   -8.05358
       H   -17.94860  -17.76078   -4.83508
       O   -17.93546  -17.92685   -5.79952
      H1   -17.26017  -17.31052   -6.12782
       H   -13.70251  -16.47576   -3.23853
       O   -13.23185  -16.98904   -3.95957
      H1   -12.30312  -16.68778   -3.81800
       H   -16.81445  -13.89016   -4.42988
       O   -16.00688  -14.29350   -4.77312
      H1   -15.88002  -14.18429   -5.71883
       H    -8.61407  -19.61949   -6.59611
       O    -9.23368  -19.13542   -6.01290
      H1    -8.88153  -18.19778   -6.10479
       H    -8.88346  -19.04022   -4.11205
       O    -8.78707  -18.90699   -3.16670
      H1    -8.92735  -17.96907   -2.97556

