90
frame 3 | Written by MDAnalysis XYZWriter (release 2.4.3)
       H     1.25884    4.52145   -9.36239
       O     0.50404    4.92860   -8.80594
      H1    -0.04993    5.28723   -9.56537
       H    -3.32219   12.39539   -7.97559
       O    -2.74027   11.82465   -8.39500
      H1    -1.90670   12.18758   -8.01377
       H    -3.55492    3.62712  -12.99016
       O    -4.07680    3.97816  -13.68093
      H1    -4.84495    3.35330  -13.79908
       H    -3.20362    8.68066  -11.90001
       O    -2.50860    9.32917  -11.90096
      H1    -2.61025    9.81751  -11.02551
       H     0.45623    8.37382   -7.98914
       O     0.13360    8.13193   -7.08672
      H1     0.04698    8.98691   -6.67926
       H    -6.12683    6.24494  -15.57895
       O    -6.13699    6.78915  -14.81903
      H1    -6.45812    6.13653  -14.17321
       H    -2.86921    7.69102  -15.07066
       O    -3.76589    8.16695  -14.86701
      H1    -4.35636    7.44429  -14.74301
       H     2.04160    8.69413   -9.13031
       O     1.21712    8.69751   -9.61345
      H1     1.40137    7.98122  -10.24214
       H    -1.73523    3.86245  -10.71488
       O    -2.11162    3.08948  -11.20226
      H1    -2.76252    2.80600  -10.49846
       H    -7.19497    9.15400  -11.31116
       O    -6.41582    8.74307  -10.96982
      H1    -6.75366    8.21721  -10.18308
       H    -7.37072    7.68338   -7.81736
       O    -6.97405    7.51853   -8.70425
      H1    -6.49315    6.65498   -8.51064
       H    -6.02749   11.82491   -9.34599
       O    -5.61646   12.32856  -10.04025
      H1    -6.15238   12.08881  -10.80494
       H     0.25588   10.37178  -12.12182
       O     0.74179   10.85586  -11.43487
      H1     0.93941   10.14373  -10.82330
       H    -7.62801    4.41062  -12.44226
       O    -7.29927    5.26103  -12.15418
      H1    -8.17248    5.76075  -12.16724
       H    -4.63400    6.33336  -12.39422
       O    -4.30595    7.04871  -11.77528
      H1    -5.17419    7.54444  -11.59840
       H    -4.22492   12.61695  -14.82242
       O    -4.25419   13.62131  -14.85587
      H1    -4.82800   13.62871  -15.62024
       H    -0.83023   10.35068  -14.43087
       O    -0.53675    9.66938  -13.75155
      H1    -1.23477    9.70518  -13.06605
       H     0.05869   12.43340  -10.70213
       O    -0.14889   13.27559  -10.15348
      H1    -1.05808   13.45138  -10.41340
       H    -3.42061    9.73652   -8.64508
       O    -4.03806    9.03200   -8.59579
      H1    -4.41831    8.96800   -9.51556
       H    -6.02579    4.93378  -10.98073
       O    -5.18186    4.77015  -10.48561
      H1    -4.58895    5.38298  -10.97161
       H    -6.59606   12.74304  -13.32211
       O    -6.38263   11.89560  -12.85668
      H1    -5.45514   11.65076  -13.05737
       H    -3.37338   11.02198  -12.75686
       O    -3.71646   11.13606  -13.66855
      H1    -3.80941   10.20793  -13.90376
       H    -1.48337    7.83102  -16.45286
       O    -1.13105    7.61298  -15.52630
      H1    -0.73352    8.42633  -15.17853
       H    -3.90989   12.50768  -11.05384
       O    -3.00619   12.06744  -11.00367
      H1    -2.96011   11.96646  -10.03126
       H    -1.56327    7.47184   -7.40402
       O    -2.30671    6.93209   -7.72092
      H1    -2.87529    7.64939   -8.09652
       H    -2.09434    6.70407  -10.86660
       O    -1.76479    5.97239  -10.28346
      H1    -1.84442    6.35311   -9.35463
       H     1.41235    6.43113  -11.95120
       O     1.66102    7.33546  -11.83185
      H1     0.94347    7.78327  -12.34588
       H     0.82635    5.01567  -15.71573
       O     0.10630    4.99266  -15.04237
      H1    -0.15314    5.91403  -14.96847
       H    -5.60265   10.25959   -8.05085
       O    -6.36803   10.83518   -7.90736
      H1    -6.98573   10.24989   -7.50263
       H    -3.54677    4.71987  -15.38640
       O    -2.87121    5.03963  -16.00784
      H1    -2.02083    5.11296  -15.52717

