90
frame 3 | Written by MDAnalysis XYZWriter (release 2.4.3)
       H    18.83868   -9.64766   16.85752
       O    19.67873  -10.02723   17.30020
      H1    20.18607  -10.43551   16.64738
       H    18.54203   -8.91333   11.59349
       O    19.50238   -9.06635   11.80838
      H1    19.99815   -8.41862   11.29116
       H    15.27684   -9.52918   18.84641
       O    15.03781   -9.35087   17.95319
      H1    15.82905   -8.94297   17.58048
       H    19.11580   -1.66150   14.81073
       O    19.07694   -2.06487   13.90947
      H1    19.27983   -2.94413   14.26059
       H    14.12602  -11.69824   13.09081
       O    14.89601  -11.96746   13.51818
      H1    14.45097  -12.34467   14.33965
       H    12.24854   -7.65922   10.50430
       O    11.58157   -7.61981   11.21382
      H1    11.68333   -6.72616   11.60728
       H    14.55131   -4.52681    7.80216
       O    15.19569   -5.18295    8.20139
      H1    14.93804   -5.13042    9.11331
       H    15.89625   -4.94174   12.46039
       O    16.03944   -4.50382   11.62478
      H1    16.85887   -3.97232   11.76692
       H    18.49402   -6.81269   13.57184
       O    17.59368   -7.11052   13.72460
      H1    17.39320   -7.57572   12.91986
       H    13.65256   -1.32060   11.90764
       O    13.57276   -1.78692   11.04309
      H1    14.06347   -2.57022   11.24176
       H    18.31397   -9.65171    8.55543
       O    17.57279   -9.93283    8.03035
      H1    17.37506   -9.05712    7.62589
       H    16.87242   -7.01285    8.09065
       O    17.61588   -6.76818    7.49054
      H1    17.15418   -6.52740    6.68110
       H    16.87440   -4.41602    9.08809
       O    17.81429   -4.01705    9.15180
      H1    18.23085   -4.59551    8.43605
       H    19.17170  -11.41780    9.91990
       O    19.74672  -10.68274    9.64612
      H1    19.81017  -10.16107   10.51830
       H    17.39065   -8.30897   15.70967
       O    17.72587   -8.29008   16.60768
      H1    18.45747   -7.67603   16.59574
       H    16.25187  -10.55063   13.82373
       O    17.12686  -10.35491   14.08628
      H1    17.56921  -10.71568   13.31948
       H    12.30237   -5.07475   17.57298
       O    12.30459   -5.45725   16.65122
      H1    11.34209   -5.59388   16.63948
       H    15.19472   -3.59516   14.83910
       O    16.02347   -3.96607   14.43092
      H1    16.65710   -3.23813   14.51336
       H    15.29534   -8.51739    8.41104
       O    15.51618   -7.77986    8.94425
      H1    14.92126   -7.09167    8.50132
       H    13.10120   -2.33317   15.37271
       O    14.09809   -2.30209   15.36229
      H1    14.11982   -1.34808   15.14673
       H    18.12458   -5.50156   10.05013
       O    18.33786   -6.36005   10.40944
      H1    19.02161   -6.75153    9.88687
       H    16.43536  -10.17960   11.13086
       O    16.89893   -9.31989   11.24357
      H1    16.44304   -8.66375   10.71427
       H    12.65699   -7.07165   17.03874
       O    12.70181   -7.88189   17.64532
      H1    13.57620   -8.23487   17.30334
       H    18.52553  -12.82755   15.11837
       O    17.59275  -12.99215   15.39737
      H1    17.20323  -12.10798   15.22870
       H    14.07253  -11.10544   10.78188
       O    13.37144  -11.44785   11.42148
      H1    12.75538  -10.73583   11.60803
       H    14.76359   -8.65155   15.06083
       O    13.80356   -8.48959   15.01508
      H1    13.76664   -7.83386   14.29702
       H    18.02781   -1.99515   12.42511
       O    17.58212   -2.29792   11.58212
      H1    16.62833   -2.16922   11.78082
       H    16.76490  -12.38581    9.73573
       O    16.79806  -12.44313   10.71256
      H1    17.52244  -13.06378   10.88181
       H    15.78962   -6.39445   19.08894
       O    16.62580   -6.38271   18.65042
      H1    16.37580   -7.02620   17.93952
       H    16.88710   -3.96937   16.65164
       O    17.31787   -3.18994   17.09828
      H1    17.15391   -3.51996   17.97896

