90
frame 3 | Written by MDAnalysis XYZWriter (release 2.4.3)
       H    17.01706   -6.91649  -17.05315
       O    16.06612   -6.90550  -17.28497
      H1    15.80079   -7.82627  -17.26741
       H    14.49801   -9.14276  -13.58446
       O    14.36092   -9.40233  -14.48872
      H1    13.94865   -8.71170  -15.00429
       H    10.52257   -6.77244  -17.75336
       O    11.20255   -6.91235  -18.41356
      H1    10.74011   -7.01363  -19.25143
       H    18.23921   -6.74373  -15.54186
       O    18.05283   -5.88020  -15.97810
      H1    18.92085   -5.70190  -16.37777
       H    17.75149   -5.50387  -14.12619
       O    17.90972   -5.21754  -13.24397
      H1    17.85190   -4.23731  -13.25305
       H     9.86285   -2.66146  -13.78232
       O     9.10802   -2.23334  -13.27072
      H1     8.86705   -1.40355  -13.80229
       H    11.86824   -2.58319  -14.87137
       O    11.58895   -3.30778  -14.30863
      H1    11.71411   -4.00118  -14.96033
       H    13.96632   -3.03919  -12.00442
       O    13.97542   -2.52378  -12.83381
      H1    13.18811   -2.93046  -13.31622
       H    11.98818   -7.85779  -17.27010
       O    12.28914   -8.02875  -16.33235
      H1    11.99874   -8.99374  -16.33226
       H    12.74522   -1.46727  -17.63588
       O    12.18255   -2.24365  -17.47519
      H1    11.25564   -1.87460  -17.32425
       H    10.03151   -9.13705  -14.19581
       O     9.24432   -8.86820  -14.69508
      H1     9.48922   -7.93689  -14.84507
       H    16.19963   -3.66181  -18.44390
       O    16.36740   -3.92596  -19.39317
      H1    16.57346   -4.86754  -19.43193
       H    11.03485   -6.65078  -15.50770
       O    10.07370   -6.51442  -15.45914
      H1     9.89439   -6.12591  -14.59799
       H    15.39524   -3.32875  -16.64797
       O    15.69326   -2.60278  -17.19834
      H1    16.58867   -2.43513  -16.84053
       H    14.20627   -9.86728  -18.68534
       O    14.94107   -9.36719  -18.33141
      H1    15.26149   -9.96819  -17.57881
       H    18.04220   -1.40293  -15.52681
       O    17.85603   -2.38849  -15.64172
      H1    17.58493   -2.51338  -14.73026
       H    17.30055   -2.07848  -12.10980
       O    17.09424   -2.56545  -12.91422
      H1    16.14607   -2.53978  -12.98663
       H    12.48330   -3.86169  -17.10294
       O    12.52518   -4.71817  -16.67790
      H1    12.42659   -5.26171  -17.50142
       H     9.49399   -4.94578  -15.93844
       O     8.97430   -4.29171  -16.41932
      H1     8.09004   -4.27072  -15.99496
       H    14.98266   -5.54984  -13.91535
       O    15.40724   -6.03523  -13.15626
      H1    16.27556   -5.59473  -13.20623
       H    14.05889   -5.08194  -16.13100
       O    14.86177   -4.87500  -15.60655
      H1    15.41833   -5.63718  -15.81751
       H    15.53080  -10.25063  -15.43538
       O    15.94985  -10.77069  -16.19420
      H1    16.90064  -10.55637  -15.97598
       H     9.32786   -5.94047  -12.22097
       O    10.24123   -5.90326  -12.63023
      H1    10.58014   -6.81740  -12.62475
       H    17.42121   -7.83031  -13.58802
       O    17.63285   -8.13793  -14.50877
      H1    18.56829   -8.38723  -14.28039
       H    12.42155   -0.74445  -13.85544
       O    12.51117   -0.58250  -14.80042
      H1    13.41366   -0.84817  -15.07033
       H    15.51596    0.06089  -15.45056
       O    14.86605   -0.06911  -16.17731
      H1    15.21992   -0.89312  -16.60609
       H    14.53652   -6.47004  -11.83754
       O    14.19983   -6.52624  -10.89674
      H1    14.42772   -7.37841  -10.49182
       H    12.56457   -7.36290  -11.72651
       O    12.01886   -7.93811  -12.31886
      H1    12.29125   -8.80764  -11.93530
       H    13.46517   -6.70175  -19.26259
       O    13.87658   -5.92472  -18.90721
      H1    14.61526   -6.37303  -18.33133
       H     9.01055   -1.12915  -16.69949
       O     9.62615   -1.67659  -17.19757
      H1     9.43744   -2.58031  -16.90859

