90
frame 0 | Written by MDAnalysis XYZWriter (release 2.4.3)
       H    -2.66187   14.63656    7.77484
       O    -2.07028   14.64938    6.97150
      H1    -1.16419   14.84301    7.38076
       H    -3.89617   17.79924    3.53464
       O    -2.93381   17.54291    3.77681
      H1    -2.43875   18.02579    3.10990
       H    -3.27740   17.47463   11.06877
       O    -3.73766   17.93614   11.83167
      H1    -3.08279   18.64919   12.00383
       H    -0.12356   12.05045    8.30511
       O    -0.70556   11.93038    9.10796
      H1     0.04532   11.63632    9.59393
       H    -3.22773   13.74017    5.77063
       O    -3.80678   13.10763    5.32233
      H1    -4.23443   12.65249    6.03019
       H    -5.39063   16.48463    6.45298
       O    -4.85088   15.71034    6.60709
      H1    -5.15222   15.11628    5.79817
       H    -7.36875   16.21716    2.24540
       O    -6.46966   16.22779    2.59761
      H1    -6.26416   17.15854    2.62008
       H    -0.18721   13.88950    2.30498
       O    -0.53800   13.68698    3.23928
      H1    -1.49191   13.95802    3.14104
       H    -6.75362   14.77938    9.08745
       O    -6.60683   14.24358    8.29012
      H1    -6.01849   14.81550    7.81801
       H     2.00144   14.45013    5.11220
       O     1.03965   14.41894    5.33187
      H1     0.56463   14.38829    4.48250
       H    -8.93087   15.51335    7.18916
       O    -8.33709   15.24243    6.43977
      H1    -7.61598   14.71018    6.87199
       H    -0.02868   12.92812    5.85303
       O    -0.63054   12.19764    6.23050
      H1    -1.35098   12.80634    6.45542
       H    -3.18942   15.90948    3.28673
       O    -3.04879   14.97091    2.89900
      H1    -3.71466   14.95184    2.22220
       H    -5.42827   11.11336    7.70186
       O    -5.01710   11.98349    7.71352
      H1    -5.69326   12.60968    7.88926
       H    -7.32938   16.70231   11.29959
       O    -7.20412   16.51929   10.33586
      H1    -8.08191   16.69816    9.93023
       H    -1.88718   13.05478    9.92378
       O    -2.49700   13.44510   10.58011
      H1    -2.48326   14.37994   10.27042
       H    -2.86971   16.74310    9.18819
       O    -2.50846   16.27889    9.97873
      H1    -1.58685   16.49722    9.87230
       H    -7.30117   16.53188    5.95605
       O    -6.79984   17.31835    5.77801
      H1    -7.19502   17.91384    6.48847
       H    -8.60818   19.89466    7.38200
       O    -8.06773   19.13908    7.66212
      H1    -7.68808   19.55962    8.48637
       H    -6.90082   12.92281    4.85209
       O    -6.96720   11.99864    4.52540
      H1    -7.76218   11.56204    5.06936
       H    -5.15028   14.03749    4.47447
       O    -5.98716   14.49615    4.53440
      H1    -5.98077   15.04020    3.73276
       H     1.73348   13.18648   10.43245
       O     1.73446   14.13152   10.42617
      H1     1.32925   14.37924    9.53692
       H     0.58500   18.51724    9.34282
       O    -0.08091   17.79515    9.39516
      H1     0.06256   17.64050   10.36525
       H     0.29982   16.09631    8.50045
       O     0.42935   15.19024    8.17858
      H1     1.17475   15.35405    7.52003
       H     1.74104   17.28413    5.86783
       O     2.66248   17.29977    6.08824
      H1     2.85194   18.21543    5.73524
       H    -2.86276   16.76897    6.56498
       O    -2.33901   17.61695    6.72858
      H1    -2.58072   18.12894    5.96264
       H    -0.14779   17.10867    4.41383
       O    -0.00848   17.68497    5.14003
      H1    -0.63490   17.31205    5.82049
       H    -7.89351   18.55388    4.91885
       O    -8.39366   19.02707    4.19732
      H1    -8.86815   18.17268    4.01911
       H    -5.89018   17.55968    9.49475
       O    -5.43142   18.38696    9.73163
      H1    -5.02796   18.14544   10.62545
       H    -4.05114   19.48881    2.03712
       O    -4.84876   18.92249    2.05322
      H1    -4.88367   18.66113    1.11674

