90
frame 3 | Written by MDAnalysis XYZWriter (release 2.4.3)
       H     6.22426    4.59219   17.47932
       O     5.89776    5.51725   17.35376
      H1     5.57603    5.71572   18.22209
       H     4.85170   11.90402   15.25775
       O     5.59310   11.24389   15.06376
      H1     6.28208   11.86612   14.78323
       H     4.69040    9.04607   15.15063
       O     3.78180    8.80262   14.95883
      H1     3.78330    7.90044   14.52303
       H    12.58890   14.28037   17.63657
       O    13.26344   14.13656   18.25067
      H1    13.58439   15.09214   18.28583
       H     8.38806    9.81567   18.52516
       O     8.12147   10.70150   18.71031
      H1     7.96090   10.71482   19.67226
       H     4.47342   10.82382   17.44052
       O     5.08680   10.95508   18.14039
      H1     5.87896   11.02370   17.64291
       H    10.79890    7.45052   13.42980
       O     9.79380    7.57372   13.44395
      H1     9.59132    8.10225   12.66931
       H     7.60027   14.30518   19.16892
       O     7.44580   15.08823   19.68803
      H1     8.22801   15.67226   19.55738
       H    13.36646    7.77749   19.33628
       O    13.60763    7.40853   18.44019
      H1    14.17624    6.73604   18.81189
       H    13.75255    8.50706   17.32927
       O    14.13334    9.10391   16.59661
      H1    13.45753    9.82922   16.67109
       H     8.90112   11.01738   13.48494
       O     8.52097   11.46184   14.27935
      H1     8.56386   12.41787   14.04586
       H     6.94134    7.53553   12.99436
       O     7.32930    6.94015   12.37734
      H1     8.26881    6.96832   12.57929
       H     7.75911   14.13757   14.11702
       O     8.53873   14.09794   14.68816
      H1     8.91644   14.96386   14.60157
       H     9.75731   11.21431   15.45439
       O    10.22769   11.02431   16.24062
      H1     9.78665   10.27588   16.70319
       H     2.13680    8.50014   17.31286
       O     2.49708    9.39120   17.26832
      H1     3.11180    9.11393   16.50553
       H    13.04009   12.17876   16.00611
       O    12.99257   11.20894   15.96230
      H1    12.05780   11.22546   15.97099
       H     4.08956   14.64160   19.40594
       O     4.02668   13.76634   19.01824
      H1     4.57839   13.81651   18.20768
       H    13.10179   12.02216   18.70422
       O    12.96128   11.09583   19.04493
      H1    13.88794   10.79460   19.02311
       H    10.71168   15.48572   17.22663
       O    10.91007   14.57253   17.01467
      H1    10.21790   14.13182   17.52806
       H     8.80389    8.39536   14.84302
       O     8.14978    8.81746   15.46450
      H1     8.18248    9.81215   15.35845
       H    11.39093    5.32312   15.21007
       O    10.75691    4.66610   15.50731
      H1     9.94848    5.14744   15.66834
       H     5.56320   14.30385   15.98212
       O     5.58208   14.03348   16.95357
      H1     6.52889   13.92332   17.16231
       H     5.20215   10.28574   12.22097
       O     6.08988   10.19129   12.55990
      H1     5.98950   10.72684   13.35440
       H     5.06796    9.53561   19.04618
       O     5.10656    8.85143   19.76046
      H1     6.05547    8.66939   19.88661
       H     9.40935    4.86883   19.42586
       O     8.77489    4.09953   19.53724
      H1     9.46469    3.39947   19.57694
       H     9.93413   11.36044   19.04759
       O    10.44889   11.58417   19.83742
      H1    11.34477   11.63329   19.50126
       H     8.33292    6.85154   15.50558
       O     8.16710    5.96744   15.80681
      H1     7.55378    5.99923   16.54296
       H     8.72857   13.57650   16.77843
       O     8.19521   13.40210   17.58861
      H1     8.34245   12.44753   17.77217
       H    10.28641    8.58470   19.07449
       O     9.95029    8.94165   18.24448
      H1     9.87759    8.19085   17.69354
       H    11.40573    5.88072   20.00249
       O    11.01259    5.89560   19.11669
      H1    11.91959    5.98067   18.66477

