90
frame 2 | Written by MDAnalysis XYZWriter (release 2.4.3)
       H    -7.96979  -11.85322    8.51049
       O    -7.23813  -12.48601    8.44711
      H1    -6.65584  -12.13636    9.10513
       H    -1.07059  -16.26805    8.38436
       O    -1.11858  -16.39297    7.43793
      H1    -0.40925  -15.83528    7.13758
       H    -5.03408  -15.59941    9.42413
       O    -5.99481  -15.81689    9.44357
      H1    -6.26280  -15.57808    8.52774
       H     0.94454  -18.96724   10.69360
       O     0.42542  -18.25494   11.12477
      H1    -0.33341  -18.80224   11.35026
       H    -6.87425  -13.41598   10.71515
       O    -7.15857  -14.17120   11.22000
      H1    -6.74147  -14.90508   10.67178
       H    -6.50854  -14.16327   13.07555
       O    -5.79561  -14.58646   13.64271
      H1    -6.31636  -15.33360   13.89516
       H    -3.41118  -17.48361   10.70797
       O    -3.35561  -17.07718    9.80532
      H1    -2.92555  -17.79521    9.27907
       H    -2.08800  -19.41619    7.38661
       O    -2.77464  -19.38815    8.14896
      H1    -3.56604  -19.17118    7.66827
       H    -3.25615  -13.00623    9.22178
       O    -3.88623  -12.81890    8.52860
      H1    -3.91626  -13.70131    8.08596
       H    -1.31111  -13.99615   10.80167
       O    -1.52689  -13.21671   10.26995
      H1    -1.96741  -12.60629   10.90025
       H   -10.47800  -15.31200    9.97830
       O   -10.75445  -16.00523    9.37015
      H1   -11.40185  -15.48039    8.82578
       H    -1.89730  -16.32178   10.59016
       O    -1.08731  -15.85050   10.89101
      H1    -0.50116  -16.64727   10.91344
       H    -5.37110  -18.16784    8.09584
       O    -5.07349  -18.43501    7.24783
      H1    -5.75408  -19.11565    6.97973
       H    -7.57202  -14.22716    7.06307
       O    -7.19217  -15.13182    7.01681
      H1    -7.98363  -15.69638    7.21898
       H   -10.93848  -17.87583   10.31802
       O   -11.20716  -18.62630   10.84570
      H1   -11.42785  -18.04397   11.67737
       H    -8.41096  -16.58770   14.75253
       O    -8.79255  -16.07072   15.46809
      H1    -8.73977  -15.12769   15.12724
       H    -6.37879  -15.83413    5.38632
       O    -5.99144  -16.23104    4.59044
      H1    -6.82909  -16.60709    4.19113
       H    -8.15900  -18.30226    8.25098
       O    -7.80256  -19.19668    8.40341
      H1    -7.13355  -19.13184    9.06914
       H    -3.82683  -15.27169   13.55634
       O    -3.01978  -15.70625   13.81195
      H1    -3.02083  -15.68396   14.78615
       H    -9.87754  -16.63993    8.17499
       O    -9.32120  -16.88437    7.42268
      H1    -9.80761  -17.61414    7.04392
       H    -2.59016  -15.40670    6.84330
       O    -3.56773  -15.27633    6.87869
      H1    -3.92441  -16.17913    6.65923
       H    -9.65978  -13.26982   13.95878
       O    -8.68597  -13.17710   13.81901
      H1    -8.49608  -13.72416   13.02747
       H   -10.22141  -13.66740   10.71838
       O    -9.94151  -14.41565   11.28857
      H1    -8.96859  -14.46269   11.11356
       H    -3.24174  -18.68346    5.07643
       O    -3.11974  -17.77289    4.68644
      H1    -3.99123  -17.44537    4.55374
       H    -7.07235  -17.88424   13.69285
       O    -6.67700  -17.04098   14.05362
      H1    -6.41338  -17.28800   14.94445
       H    -2.68509  -18.09563   14.70417
       O    -3.43948  -18.68804   14.55730
      H1    -3.65651  -18.43860   13.64012
       H    -5.66881  -19.12425   10.18220
       O    -6.20173  -18.36519   10.29910
      H1    -5.61893  -17.60402    9.98372
       H    -4.78876  -16.81549   12.75240
       O    -4.41447  -17.53528   12.18868
      H1    -5.18310  -17.96282   11.79267
       H    -1.61703  -14.81875   13.30493
       O    -0.71620  -14.47352   13.30271
      H1    -0.33615  -14.84464   12.48340
       H    -4.96400  -11.37416   11.17965
       O    -5.85195  -11.50613   10.74483
      H1    -6.32394  -10.69543   10.99184

