90
frame 3 | Written by MDAnalysis XYZWriter (release 2.4.3)
       H     7.88790    1.37242   -3.23024
       O     7.12937    1.96386   -3.07407
      H1     6.45893    1.36712   -3.48208
       H     6.60218    3.69128   -5.52527
       O     6.99184    4.04886   -4.69477
      H1     7.04127    3.20643   -4.18861
       H     4.73364    8.43084   -3.43726
       O     4.47421    7.72798   -4.07163
      H1     3.80459    8.17914   -4.67037
       H    13.20157    6.60605   -5.73206
       O    12.58249    7.32820   -5.36511
      H1    13.21059    7.87680   -4.79558
       H    13.96117    4.92564   -1.53172
       O    13.75048    4.23179   -2.18293
      H1    12.78078    4.32193   -2.08235
       H     8.79819    4.45080   -4.86954
       O     9.72491    4.37201   -4.54266
      H1    10.15831    4.02918   -5.32971
       H    10.67300    5.64014   -7.66644
       O    11.44848    5.48857   -7.11589
      H1    11.43276    6.35127   -6.59193
       H    14.74419    4.33186   -5.21742
       O    14.50482    3.39761   -5.07071
      H1    13.90378    3.55385   -4.34444
       H    10.78668    7.18743   -4.64762
       O     9.84674    7.12837   -4.53707
      H1     9.74638    6.15451   -4.54265
       H     5.99363    6.84240   -6.26653
       O     6.06598    6.98889   -7.24838
      H1     6.86772    6.48807   -7.45317
       H    13.11065    9.82459   -3.37404
       O    13.52910    8.94659   -3.41699
      H1    13.29954    8.77738   -2.44595
       H    14.67154    5.03234   -7.30340
       O    14.69300    5.90578   -6.91904
      H1    15.33474    6.34518   -7.48271
       H    11.89212    8.49017   -7.12551
       O    11.98361    9.03704   -7.92104
      H1    11.45775    8.42086   -8.51536
       H     4.92527    5.98567   -2.72593
       O     4.66505    5.77071   -1.81821
      H1     5.48157    5.99744   -1.38809
       H     9.40676    4.99987    0.02836
       O    10.21744    5.49483    0.00828
      H1    10.84795    5.01167    0.56117
       H    10.04723    2.35988   -2.01519
       O    10.87208    2.57016   -2.41025
      H1    10.52375    3.12659   -3.15104
       H     6.83230    7.81398    0.20646
       O     6.77915    7.01284   -0.35981
      H1     7.66637    6.67851   -0.24822
       H    10.78154    1.92783   -6.14152
       O     9.97729    1.60143   -5.73461
      H1     9.79066    0.80631   -6.32490
       H     7.47337    3.60028    0.99510
       O     8.01741    3.75208    0.17675
      H1     7.26900    3.56847   -0.45070
       H     9.33045   10.82716   -5.36249
       O     8.66798   11.12825   -4.67707
      H1     8.38863   11.99212   -4.93494
       H     8.22541    5.09709   -9.47815
       O     8.18338    5.96055   -9.09239
      H1     8.89970    6.47272   -9.51477
       H     9.26384    8.43799   -9.35476
       O    10.09611    7.92364   -9.63738
      H1     9.95286    7.74141  -10.58736
       H     9.20796    9.31527   -1.44169
       O     9.74369    9.38980   -0.62717
      H1    10.11332   10.27714   -0.59272
       H     8.18231    9.78637   -3.27835
       O     8.13346    9.03945   -2.69124
      H1     8.72023    8.50470   -3.23552
       H     6.08406    9.16447   -2.07494
       O     5.15276    9.44899   -2.04155
      H1     5.18653   10.30074   -1.55438
       H     7.10522    9.00853   -8.07069
       O     7.91895    9.22351   -8.50501
      H1     8.39193    9.59747   -7.73710
       H    11.57939    8.52302   -0.63030
       O    12.51922    8.69397   -0.80290
      H1    12.98262    7.92743   -0.44432
       H    12.09534    5.20700   -8.98974
       O    12.66298    4.88974   -9.69667
      H1    12.95386    5.67562  -10.14280
       H    10.88068   10.24714   -7.45278
       O    10.10498   10.75117   -7.04852
      H1     9.94108   11.33548   -7.80566
       H     6.77427    2.94665   -8.00667
       O     7.30738    3.23962   -8.79716
      H1     6.48747    3.16574   -9.36618

