90
frame 3 | Written by MDAnalysis XYZWriter (release 2.4.3)
       H    -3.81461   17.39304  -12.18037
       O    -4.38435   17.74171  -12.84627
      H1    -4.28745   16.98107  -13.47661
       H    -1.68610   16.09930  -14.79124
       O    -0.72154   15.95806  -14.88752
      H1    -0.51564   15.25698  -14.28572
       H    -4.23938   17.09197  -19.98559
       O    -5.09497   16.86888  -19.62096
      H1    -5.02858   17.18501  -18.68610
       H    -8.79242   18.88476  -19.04999
       O    -9.27035   19.58121  -19.58474
      H1   -10.25101   19.26692  -19.50553
       H    -8.66855   13.41190  -14.64936
       O    -9.33712   12.96705  -15.23744
      H1    -9.97471   12.60712  -14.60605
       H    -3.92863   18.28575  -17.16269
       O    -4.74525   17.74837  -16.92844
      H1    -5.31054   18.42405  -16.51116
       H    -1.34907   18.55847  -17.67204
       O    -2.19131   18.97513  -17.77346
      H1    -2.19162   19.59245  -17.00171
       H    -3.59758   14.86899  -12.08442
       O    -4.37804   14.33738  -12.20317
      H1    -4.37039   14.34555  -13.18152
       H   -13.33855   18.53153  -15.33681
       O   -13.24973   18.51600  -16.29572
      H1   -12.42441   18.02381  -16.40256
       H   -12.64781   19.43692  -13.32991
       O   -12.78197   18.57051  -13.74167
      H1   -11.89655   18.13905  -13.58769
       H    -7.38725   19.01564   -8.30535
       O    -7.44015   18.18805   -7.82923
      H1    -8.00705   17.68317   -8.45205
       H   -10.00636   14.79212  -12.32417
       O    -9.15755   14.52764  -11.93134
      H1    -9.05945   15.27153  -11.32072
       H    -7.70417   19.74235  -15.25797
       O    -6.89568   19.17486  -15.52805
      H1    -6.98217   18.48595  -14.82803
       H    -7.90375   14.44908  -13.34854
       O    -7.39858   14.32026  -14.15498
      H1    -7.16521   15.22394  -14.30960
       H   -11.01505   16.05016  -17.10075
       O   -11.02118   17.01221  -16.89793
      H1   -10.08653   17.26124  -16.72899
       H    -7.67224   18.40432  -16.86821
       O    -8.35365   18.00975  -17.49976
      H1    -8.28730   17.05211  -17.35610
       H    -5.36323   14.99404  -10.62621
       O    -5.68215   15.04689   -9.69416
      H1    -5.81430   14.05535   -9.43180
       H    -7.48711   15.34742   -9.82507
       O    -8.02735   16.13757   -9.97729
      H1    -7.48896   16.68166  -10.57343
       H    -4.22492   12.61695  -14.82242
       O    -4.25419   13.62131  -14.85587
      H1    -4.82800   13.62871  -15.62024
       H   -11.19091   15.52823  -13.75273
       O   -11.52850   14.95927  -13.02579
      H1   -12.20760   15.55145  -12.60626
       H    -1.76337   17.17771  -10.98831
       O    -2.58828   16.72708  -11.16959
      H1    -2.94470   16.63102  -10.24416
       H    -7.99582   15.04391  -15.77158
       O    -8.06452   15.32256  -16.66893
      H1    -7.24954   15.01286  -17.09820
       H    -6.59606   12.74304  -13.32211
       O    -6.38263   11.89560  -12.85668
      H1    -5.45514   11.65076  -13.05737
       H    -9.49288   18.53577  -12.58749
       O   -10.19202   17.85843  -12.66440
      H1   -10.31831   17.65609  -11.72555
       H   -10.50859   13.06331  -16.71272
       O   -11.07493   12.95084  -17.45660
      H1   -10.61712   13.41829  -18.16528
       H    -7.20278   17.20940  -13.13179
       O    -7.65861   17.19168  -13.96946
      H1    -8.58618   17.25756  -13.67899
       H    -3.66860   15.22981  -15.13884
       O    -3.38667   16.17922  -14.98620
      H1    -3.90340   16.67860  -15.66988
       H    -1.96593   13.69317  -17.22927
       O    -2.15217   14.60525  -17.00519
      H1    -1.47964   14.80188  -16.35753
       H    -5.19775   15.86157  -17.25015
       O    -5.47273   14.93093  -17.26676
      H1    -4.79402   14.53273  -17.91103
       H    -6.79638   18.83731  -11.34658
       O    -6.52781   17.92130  -11.25501
      H1    -5.56280   18.02797  -11.38705

