90
frame 3 | Written by MDAnalysis XYZWriter (release 2.4.3)
       H    15.51002   16.87826   -1.79276
       O    15.57806   17.79830   -1.56394
      H1    16.52441   18.00854   -1.37993
       H     9.01477   15.45987   -4.25681
       O     9.83932   15.86357   -4.58118
      H1    10.01094   16.39540   -3.82733
       H    12.11626   14.51904    1.04253
       O    11.68644   14.52682    1.92918
      H1    11.71597   15.52222    2.18585
       H    13.99472   16.90929   -5.43981
       O    14.36987   17.49607   -4.77815
      H1    13.80487   17.28248   -3.97807
       H    16.44840   17.07117   -6.13594
       O    16.24501   17.64752   -6.90889
      H1    17.06727   17.64237   -7.45637
       H    12.49256   17.57899    2.23130
       O    11.74816   17.15070    2.69488
      H1    12.17392   17.11614    3.58103
       H    15.04272   18.22600   -0.02462
       O    14.57904   18.50931    0.74749
      H1    15.01888   19.34935    1.09578
       H    13.67307   14.66670   -0.98761
       O    12.74961   14.76263   -0.71159
      H1    12.45672   13.89971   -1.01689
       H    11.69207   19.14855   -0.63085
       O    12.12296   18.34773   -0.30456
      H1    13.01425   18.71423   -0.15153
       H    11.39787   12.07933   -2.32287
       O    11.75823   11.96745   -1.39300
      H1    11.03220   12.29911   -0.89091
       H    17.89399   18.46851   -0.40090
       O    18.50602   17.95439   -0.90430
      H1    18.88830   17.41653   -0.16405
       H    10.49720   13.97253   -6.87072
       O    11.10548   14.20622   -6.12901
      H1    10.53411   14.88117   -5.63822
       H     9.67299   15.60093   -1.20741
       O     9.59109   16.48526   -0.79893
      H1    10.51578   16.61637   -0.71476
       H    14.48507   12.00453    0.25597
       O    14.56310   11.64918   -0.64011
      H1    13.62696   11.19215   -0.68749
       H    11.13604   13.41182   -4.63835
       O    11.05702   12.66150   -3.99161
      H1    10.24628   12.25185   -4.28451
       H    10.04063   17.76015    2.43590
       O     9.11718   18.01818    2.25680
      H1     9.06814   18.94011    1.90079
       H     8.98176   13.96544   -2.42862
       O     9.91788   14.07911   -2.07263
      H1    10.38763   13.93081   -2.91977
       H    17.16551   14.12090   -3.53788
       O    17.72405   13.77931   -2.83651
      H1    17.26975   12.94476   -2.64372
       H     6.29700   16.09258   -2.70477
       O     7.23683   15.97685   -2.99210
      H1     7.17978   16.77247   -3.63308
       H     9.40327   12.44181    0.94446
       O    10.34464   12.33251    1.02543
      H1    10.62164   13.25849    1.32931
       H    10.08626   17.42822   -7.16841
       O    10.44370   17.84694   -6.34674
      H1    10.01237   17.14884   -5.68819
       H    11.42255   19.57189   -7.12166
       O    11.95657   19.79207   -7.87464
      H1    11.65327   19.14210   -8.56767
       H     7.17337   15.18107    1.35658
       O     7.23378   15.45127    0.40833
      H1     8.16998   15.83881    0.29546
       H    14.70170   13.17852   -4.56697
       O    15.18581   13.98244   -4.71070
      H1    14.60886   14.44680   -5.36832
       H    16.27446   15.00933   -1.76672
       O    15.29609   15.21210   -1.94808
      H1    15.18358   14.80557   -2.84334
       H    12.65100   14.77700   -6.51194
       O    13.54459   15.21796   -6.46017
      H1    13.72846   15.30066   -7.41369
       H    12.86191   11.91881   -4.47217
       O    13.85332   11.72399   -4.49850
      H1    14.07821   11.33367   -5.37146
       H    12.64734   16.16273   -1.96055
       O    12.78504   16.97963   -2.46066
      H1    12.67038   17.68847   -1.76834
       H     9.74901   17.64786   -2.09550
       O    10.20642   17.99483   -2.89418
      H1    11.11038   17.66443   -2.72239
       H    16.59476   16.12381    1.97032
       O    16.84295   17.03538    1.91602
      H1    16.07501   17.47465    1.52440

