90
frame 2 | Written by MDAnalysis XYZWriter (release 2.4.3)
       H    -1.09646   14.30506   -2.09480
       O    -1.71663   14.04325   -1.40053
      H1    -1.60855   14.81134   -0.81613
       H    -0.56547   12.69127   -1.03627
       O    -0.02206   11.96707   -0.77267
      H1     0.43456   11.77457   -1.58144
       H    -0.97144   11.00154    5.45928
       O    -1.28833   10.38588    4.80650
      H1    -0.54970   10.22243    4.17623
       H     3.40538   15.02439   -2.18301
       O     4.13468   15.65391   -2.29041
      H1     3.67020   16.52108   -2.35011
       H     1.76169   17.88397   -0.75602
       O     1.58956   18.20227    0.13366
      H1     0.63868   18.17272    0.16498
       H     4.37680   13.93884    1.58110
       O     3.57771   13.71237    2.03280
      H1     3.84822   14.22449    2.82929
       H     1.40044   11.49324    2.22702
       O     1.70970   10.61143    2.45466
      H1     1.06077   10.04780    2.00627
       H    -0.18779   13.76351    3.18391
       O    -0.54962   13.91331    4.08568
      H1    -1.42706   14.30087    3.91267
       H     3.73436   12.29140   -1.87256
       O     3.11942   12.74816   -2.52336
      H1     2.52877   12.02487   -2.78211
       H    -3.60738   12.64077    0.37488
       O    -4.49323   13.06796    0.07406
      H1    -5.07016   12.52914    0.60413
       H    -2.40657   16.70028   -0.14191
       O    -1.42207   16.75814   -0.30729
      H1    -1.23993   16.86609   -1.26952
       H     4.83021   11.26148    0.28393
       O     4.88243   11.59102   -0.58835
      H1     5.77780   12.01240   -0.58441
       H     4.50793    9.67634    2.67644
       O     4.35157   10.28618    1.89863
      H1     3.34767   10.34045    1.93814
       H    -0.51257   10.07855   -0.95499
       O    -0.92955    9.15311   -0.87251
      H1    -0.38589    8.82381   -1.65016
       H     1.99076   13.60415   -1.35991
       O     1.35550   14.29137   -1.17212
      H1     0.80595   13.98917   -0.42512
       H     2.20601   14.78628    5.74675
       O     1.48377   14.10435    5.93269
      H1     0.84834   14.32594    5.20734
       H     0.60120   14.35724   -2.86600
       O     0.00877   14.51227   -3.61969
      H1    -0.46361   13.68543   -3.78330
       H     0.01812   11.68437    7.60352
       O    -0.65425   12.19491    7.11589
      H1    -0.08356   12.94402    6.79740
       H    -3.32089   15.76638    3.24522
       O    -2.84747   14.92694    3.01245
      H1    -3.14232   14.85472    2.06846
       H    -0.83383    8.91810    1.10590
       O    -0.67637    8.81723    2.07095
      H1    -0.83791    7.86076    2.11043
       H     1.25524   16.91515    5.05925
       O     2.21783   16.83396    5.23328
      H1     2.49922   17.74872    5.40658
       H    -2.63099   11.56826    1.94764
       O    -2.16026   11.94864    1.14155
      H1    -1.32862   12.32430    1.49739
       H    -4.73655   16.07655    0.66929
       O    -3.86923   15.67666    0.46915
      H1    -4.24976   14.85727    0.12946
       H     3.63461   15.41224    4.64672
       O     4.34709   14.75341    4.65104
      H1     5.13499   15.31566    4.78041
       H    -0.94450   16.45794    3.87066
       O    -0.51721   16.96111    4.57450
      H1    -1.29233   17.21067    5.06207
       H     1.81802   10.90160    4.41324
       O     1.59817   10.56236    5.28756
      H1     0.82583   11.04918    5.51898
       H    -3.47472   12.10396    4.06962
       O    -3.38046   11.34037    3.49903
      H1    -2.76165   10.87831    4.08489
       H     0.17749   14.48876    1.52272
       O     0.61472   13.60781    1.61844
      H1     1.56936   13.82411    1.55742
       H     0.96224   16.14424    1.80156
       O    -0.00232   16.05740    1.82768
      H1    -0.30827   16.22000    0.93363
       H     5.27999   11.76523    3.26587
       O     6.14536   12.20478    3.50743
      H1     6.72279   11.43582    3.75070

