90
frame 3 | Written by MDAnalysis XYZWriter (release 2.4.3)
       H     9.15860   -8.68201    9.73880
       O     9.57333   -7.89375    9.34662
      H1    10.18378   -7.64832   10.10363
       H    10.45271  -10.24831    9.68562
       O    11.04768  -10.51987    8.91272
      H1    10.36293  -10.76339    8.26634
       H    14.12602  -11.69824   13.09081
       O    14.89601  -11.96746   13.51818
      H1    14.45097  -12.34467   14.33965
       H     6.96578   -6.00077   16.41727
       O     7.55006   -6.72811   16.24849
      H1     7.04382   -7.43385   15.86383
       H    12.24854   -7.65922   10.50430
       O    11.58157   -7.61981   11.21382
      H1    11.68333   -6.72616   11.60728
       H    12.28676  -12.03081    8.82946
       O    12.95064  -12.61379    8.41188
      H1    13.54037  -11.93468    7.93418
       H    12.02459  -13.91524   14.69746
       O    12.90311  -13.56853   14.74145
      H1    13.05044  -13.69123   15.70915
       H     8.47103   -8.40418   11.96994
       O     7.60121   -7.89789   12.03702
      H1     7.26577   -8.17564   11.21030
       H     9.90723  -13.21630   13.93827
       O    10.12857  -14.09073   14.21782
      H1    10.30525  -14.50390   13.36413
       H    10.16996  -11.19165   15.86951
       O     9.51802  -11.48126   15.21465
      H1     8.74198  -11.59481   15.84388
       H    13.20052  -13.68255   10.24292
       O    13.26100  -14.61875   10.56265
      H1    13.76933  -14.51923   11.36873
       H    12.23379   -9.37773    7.17384
       O    12.50673   -9.34639    6.24218
      H1    12.97548   -8.49728    6.26985
       H     8.45497  -11.28653    7.11943
       O     8.64473  -10.52612    7.72463
      H1     8.85156   -9.79025    7.12904
       H    16.25187  -10.55063   13.82373
       O    17.12686  -10.35491   14.08628
      H1    17.56921  -10.71568   13.31948
       H    11.31355   -8.99496   12.46984
       O    11.30416   -9.93160   12.73660
      H1    11.39053   -9.82941   13.69169
       H    12.30237   -5.07475   17.57298
       O    12.30459   -5.45725   16.65122
      H1    11.34209   -5.59388   16.63948
       H     8.71441  -12.08029   13.33157
       O     8.42168  -12.52215   12.50287
      H1     7.45393  -12.37344   12.62672
       H     7.34056   -5.74228    8.63202
       O     7.55137   -6.59802    8.25379
      H1     8.33402   -7.00192    8.64363
       H     8.00371   -5.77031   14.50457
       O     8.11139   -5.63054   13.55928
      H1     7.92787   -6.49259   13.18514
       H    15.29534   -8.51739    8.41104
       O    15.51618   -7.77986    8.94425
      H1    14.92126   -7.09167    8.50132
       H    16.43536  -10.17960   11.13086
       O    16.89893   -9.31989   11.24357
      H1    16.44304   -8.66375   10.71427
       H    12.28063   -6.97694    8.36184
       O    12.40979   -7.89476    8.63376
      H1    11.50257   -8.17991    8.69762
       H    12.65699   -7.07165   17.03874
       O    12.70181   -7.88189   17.64532
      H1    13.57620   -8.23487   17.30334
       H     9.42906  -10.48838   11.64650
       O     9.05756  -10.01403   10.85800
      H1     8.30651  -10.56930   10.70528
       H    14.07253  -11.10544   10.78188
       O    13.37144  -11.44785   11.42148
      H1    12.75538  -10.73583   11.60803
       H    14.76359   -8.65155   15.06083
       O    13.80356   -8.48959   15.01508
      H1    13.76664   -7.83386   14.29702
       H    11.32473   -9.01622   17.35816
       O    10.83445   -9.86541   17.47442
      H1    11.60859  -10.27999   17.93444
       H     9.20749   -9.36238   14.88005
       O     9.38298   -8.46364   14.63908
      H1    10.41191   -8.31779   14.71858
       H     9.79904   -5.07829   12.69802
       O    10.71367   -5.08627   12.35922
      H1    10.91311   -4.14223   12.41673
       H     6.43283   -5.98307   11.70415
       O     5.46994   -6.10507   11.89657
      H1     5.57285   -6.66116   12.64205

