90
frame 3 | Written by MDAnalysis XYZWriter (release 2.4.3)
       H     3.83206  -11.43756   17.46538
       O     3.95497  -10.44311   17.33207
      H1     3.76741  -10.16773   18.30945
       H    11.76481  -16.52115   16.01864
       O    11.60201  -16.18938   16.87126
      H1    10.70715  -15.75505   16.81614
       H     9.52741  -14.35754   15.86559
       O     9.15401  -14.66048   16.70747
      H1     9.35655  -14.00336   17.39033
       H     7.37804   -8.38970   19.35185
       O     6.45412   -8.41342   19.04200
      H1     6.57725   -8.32716   18.08617
       H     5.68396  -11.64407   13.22301
       O     5.73320  -11.60314   12.28735
      H1     5.18791  -12.35343   11.98681
       H     6.96578   -6.00077   16.41727
       O     7.55006   -6.72811   16.24849
      H1     7.04382   -7.43385   15.86383
       H     9.10484   -6.18595   17.13268
       O     9.75612   -5.57397   17.49441
      H1     9.25386   -5.47654   18.37764
       H    12.02459  -13.91524   14.69746
       O    12.90311  -13.56853   14.74145
      H1    13.05044  -13.69123   15.70915
       H     9.59533   -9.09405   18.58030
       O     9.00638   -8.60830   19.23657
      H1     9.18818   -9.08170   20.05737
       H     9.90723  -13.21630   13.93827
       O    10.12857  -14.09073   14.21782
      H1    10.30525  -14.50390   13.36413
       H    10.16996  -11.19165   15.86951
       O     9.51802  -11.48126   15.21465
      H1     8.74198  -11.59481   15.84388
       H     3.58245  -13.63011   18.36626
       O     3.21227  -13.23787   17.55708
      H1     2.38442  -12.82908   17.82503
       H     4.92437  -18.59499   17.95051
       O     5.52863  -17.87025   17.65951
      H1     4.82406  -17.18326   17.43311
       H     2.24529  -12.08532   14.12580
       O     2.95841  -12.10001   14.75725
      H1     2.95141  -12.94635   15.13264
       H     2.79483   -9.87703   15.44693
       O     2.26992   -9.08385   15.34736
      H1     2.78742   -8.44903   14.77635
       H     5.15548   -8.78193   15.26617
       O     5.80600   -9.13609   15.88241
      H1     5.23227   -9.62326   16.50229
       H     5.76961  -13.86279   19.74399
       O     5.95302  -13.11806   19.13703
      H1     6.10805  -12.37419   19.71383
       H    11.31355   -8.99496   12.46984
       O    11.30416   -9.93160   12.73660
      H1    11.39053   -9.82941   13.69169
       H     8.71441  -12.08029   13.33157
       O     8.42168  -12.52215   12.50287
      H1     7.45393  -12.37344   12.62672
       H     6.65533  -11.92169   17.19931
       O     7.60153  -11.60965   17.23252
      H1     7.87473  -12.07377   18.04062
       H    12.65699   -7.07165   17.03874
       O    12.70181   -7.88189   17.64532
      H1    13.57620   -8.23487   17.30334
       H     4.92113  -15.23746   16.35095
       O     4.16195  -15.80769   16.42083
      H1     3.62181  -15.16577   16.89021
       H    11.32473   -9.01622   17.35816
       O    10.83445   -9.86541   17.47442
      H1    11.60859  -10.27999   17.93444
       H     9.20749   -9.36238   14.88005
       O     9.38298   -8.46364   14.63908
      H1    10.41191   -8.31779   14.71858
       H     9.63124  -13.92496   19.82422
       O     9.64559  -13.42142   19.01348
      H1    10.25886  -12.63935   19.33846
       H     4.60179  -11.85495   15.06658
       O     5.60011  -11.87542   14.91660
      H1     5.96766  -11.16584   15.45163
       H    12.69037  -14.88630   17.81012
       O    12.80342  -13.90502   18.12121
      H1    13.57238  -13.94665   18.67550
       H     7.59313  -14.36178   16.25164
       O     6.62432  -14.52248   16.01195
      H1     6.53348  -13.73373   15.45826
       H     8.25353  -16.20688   17.50399
       O     8.12327  -16.95611   18.11365
      H1     7.11996  -17.05161   18.10547
       H     6.79073  -15.46134   14.60201
       O     6.62983  -15.73588   13.66113
      H1     7.24626  -16.51627   13.76303

