90
frame 3 | Written by MDAnalysis XYZWriter (release 2.4.3)
       H   -10.39777  -10.43651   11.50074
       O   -10.20061  -10.72110   10.62969
      H1   -10.91950  -11.14799   10.21712
       H   -14.19332   -9.56478   10.72682
       O   -13.24190   -9.50700   10.54955
      H1   -13.04562   -8.55961   10.48640
       H    -8.56520  -10.20537   14.32236
       O    -8.12658   -9.35124   14.31246
      H1    -7.32706   -9.66539   13.80337
       H    -8.63971   -7.59691   12.50893
       O    -7.89787   -7.69632   11.88236
      H1    -8.35251   -7.45442   11.04693
       H   -13.60613  -12.06357   15.20546
       O   -14.22261  -11.69086   14.55492
      H1   -14.50643  -12.55172   14.06356
       H   -11.70220   -3.79850   15.13460
       O   -11.63122   -3.31208   15.93894
      H1   -12.24967   -3.91282   16.40697
       H    -9.15191   -7.76557   14.15163
       O    -9.65035   -7.01771   13.78131
      H1   -10.52819   -7.42891   13.59347
       H    -8.01088   -6.79454   16.25036
       O    -8.76911   -6.18464   16.32240
      H1    -9.22321   -6.36351   15.40803
       H   -13.05553  -11.36035   10.83604
       O   -12.64727  -12.07074   11.32633
      H1   -13.09770  -12.88688   11.09125
       H   -10.47701   -7.17466   16.82203
       O   -11.22878   -7.72264   16.82993
      H1   -10.77972   -8.45965   17.24475
       H   -12.79994   -5.65159   10.39511
       O   -13.19483   -6.52523   10.51190
      H1   -13.74309   -6.71664    9.74547
       H    -9.46244   -3.06679   14.37038
       O    -8.98335   -2.50138   15.00334
      H1    -9.73120   -2.10397   15.47222
       H   -14.38647   -5.26901   17.70434
       O   -13.49703   -5.07488   17.38354
      H1   -13.06460   -5.91156   17.65470
       H   -15.87389   -6.79853   12.44487
       O   -16.29272   -6.76990   13.31197
      H1   -15.81333   -6.12096   13.80362
       H   -15.53431   -9.31469   16.43047
       O   -15.17309  -10.16702   16.67415
      H1   -15.06156  -10.65885   15.88970
       H   -14.57528   -8.37095   18.55112
       O   -13.74431   -7.94575   18.24306
      H1   -13.66252   -8.35166   17.30058
       H   -12.91683   -8.37748   13.73279
       O   -12.51480   -7.54147   14.05472
      H1   -12.14251   -7.93877   14.88827
       H   -11.99982  -13.72844   13.74624
       O   -11.57144  -12.90098   13.90620
      H1   -12.06407  -12.27331   13.41022
       H   -14.87951   -3.36124   12.16656
       O   -14.39974   -2.82209   11.50736
      H1   -13.43823   -3.09325   11.58358
       H   -13.59750   -5.76775   14.23228
       O   -13.98344   -4.87506   14.40005
      H1   -13.88571   -4.73950   15.37420
       H   -13.17466  -10.01822   12.30745
       O   -12.86139  -10.00646   13.23630
      H1   -13.42263  -10.77739   13.55483
       H    -9.49060   -8.43088    9.72377
       O    -9.30499   -7.49742    9.43585
      H1   -10.14320   -7.24586    8.98027
       H   -11.54903   -2.60460   10.51340
       O   -11.67477   -3.51172   10.79110
      H1   -10.83140   -3.69497   11.30484
       H   -10.04647  -11.95160   14.56456
       O    -9.09496  -11.88060   14.49831
      H1    -8.78467  -12.79671   14.22372
       H   -16.17375   -6.36080   18.05651
       O   -16.20125   -5.88461   17.18830
      H1   -16.87423   -5.22476   17.35164
       H   -16.31683   -4.82387   11.49920
       O   -15.84241   -5.45290   10.91882
      H1   -14.84124   -5.34215   11.10521
       H    -9.48449   -9.84742   18.20255
       O   -10.31760  -10.08901   17.82128
      H1   -10.87301  -10.30480   18.60575
       H   -16.50171   -7.15987   16.16924
       O   -16.73906   -7.99150   15.66881
      H1   -16.65654   -7.76475   14.73521
       H    -9.09655   -3.65530   12.54278
       O    -9.84109   -4.16843   12.92349
      H1    -9.40239   -5.00526   13.11007
       H   -10.63364   -4.09451   18.91524
       O   -10.65516   -4.96890   18.56174
      H1   -10.09802   -4.85099   17.80424

