90
frame 2 | Written by MDAnalysis XYZWriter (release 2.4.3)
       H    -3.92690  -12.78400  -15.85205
       O    -4.69427  -13.22758  -16.25870
      H1    -5.22256  -12.48727  -16.57529
       H   -10.75386   -5.83236  -19.49693
       O   -11.08245   -6.57651  -19.01913
      H1   -11.00471   -7.26137  -19.66804
       H    -5.60396  -13.46772  -14.79335
       O    -5.87225  -13.66541  -13.86524
      H1    -6.73273  -13.16320  -13.88912
       H   -11.53325   -8.92010  -11.04138
       O   -11.98365   -9.47536  -11.69235
      H1   -12.23111  -10.24748  -11.14858
       H    -8.21402  -11.64093  -13.63476
       O    -8.03045  -12.36411  -14.29449
      H1    -7.82797  -11.91531  -15.12704
       H    -9.90007   -9.28512  -15.68756
       O    -9.31641   -8.64952  -15.43676
      H1    -8.77146   -9.01870  -14.73195
       H    -8.76151   -5.69019  -12.23451
       O    -9.26533   -5.96162  -13.00306
      H1    -9.45518   -5.12249  -13.53042
       H   -11.21998   -5.96153  -12.28395
       O   -11.80069   -5.66581  -11.54337
      H1   -12.58504   -6.15104  -11.75042
       H   -11.82202  -11.26709  -18.72221
       O   -12.54574  -11.27402  -19.35273
      H1   -13.12717  -10.53015  -19.13581
       H    -5.16668   -6.45647  -19.16186
       O    -5.61822   -7.01318  -18.54304
      H1    -6.45031   -6.58583  -18.43689
       H   -10.59986  -11.38033  -17.07347
       O   -10.52923  -10.49030  -17.48966
      H1    -9.60539  -10.52070  -17.80926
       H    -9.11220  -16.04432  -17.31500
       O    -8.54150  -15.54873  -16.72132
      H1    -8.92582  -14.69454  -16.71478
       H    -6.81802  -10.43021  -13.78777
       O    -7.34091   -9.87544  -13.18760
      H1    -6.76774   -9.07913  -13.02276
       H   -14.22055  -12.35161  -16.13611
       O   -13.46026  -11.85437  -16.49404
      H1   -13.04944  -11.45739  -15.70478
       H   -10.51655  -12.00562  -12.62940
       O   -10.41826  -11.30673  -13.32964
      H1   -10.74053  -10.49738  -12.83395
       H    -9.53978  -12.74557  -15.27601
       O    -9.96155  -13.00854  -16.11177
      H1   -10.78570  -13.41739  -15.84847
       H   -12.75031   -9.26437  -13.77668
       O   -12.45229   -9.05069  -14.65700
      H1   -11.51354   -9.24230  -14.60463
       H    -8.13614  -10.71194  -11.46520
       O    -8.39458  -11.25789  -10.68194
      H1    -7.65367  -11.87283  -10.64207
       H    -9.50080   -7.05281  -18.08526
       O    -8.60139   -7.45358  -17.94725
      H1    -8.81100   -7.75022  -17.01756
       H   -14.34734   -9.16106  -17.62158
       O   -14.48707   -9.95561  -18.11601
      H1   -14.08496  -10.66269  -17.58947
       H    -6.14859  -10.54665  -16.41658
       O    -6.81920  -11.32137  -16.35147
      H1    -7.19031  -11.46962  -17.21025
       H    -8.31523   -9.26560  -18.83944
       O    -8.33276  -10.20595  -18.90311
      H1    -7.39135  -10.31279  -19.28057
       H    -4.97660   -7.83997  -13.17519
       O    -5.67532   -7.67946  -12.50722
      H1    -5.72535   -6.70910  -12.45726
       H   -13.00716  -13.54697  -16.87686
       O   -12.61029  -14.47563  -16.84057
      H1   -12.89434  -14.82909  -15.94451
       H   -13.63504   -4.74976  -15.77662
       O   -13.92711   -5.35662  -15.06355
      H1   -13.51385   -6.19417  -15.44805
       H    -4.39348   -9.54733  -18.00502
       O    -5.13081   -9.48447  -17.36176
      H1    -5.33103   -8.55163  -17.49725
       H   -12.73146   -5.06936  -17.90233
       O   -12.56854   -4.42845  -17.22824
      H1   -12.78749   -3.63821  -17.76145
       H    -6.74304   -4.88481  -16.67671
       O    -6.50673   -4.41965  -17.47125
      H1    -5.52474   -4.33091  -17.35981
       H   -12.64981   -7.89483  -16.24355
       O   -12.92577   -7.28694  -16.96471
      H1   -12.04313   -7.10784  -17.22367
       H    -7.34810   -6.77088  -14.53370
       O    -6.73689   -6.12789  -14.99664
      H1    -6.05774   -6.72253  -15.32812

