90
frame 3 | Written by MDAnalysis XYZWriter (release 2.4.3)
       H   -17.85330   -8.99193  -13.85042
       O   -18.48869   -8.19247  -13.90350
      H1   -17.93526   -7.49468  -14.24045
       H   -12.71212  -14.92778  -13.43636
       O   -12.15419  -15.47971  -13.97218
      H1   -12.54192  -16.36370  -13.74974
       H   -11.73142  -10.60403  -18.19817
       O   -12.07682  -10.56383  -19.08945
      H1   -12.81471   -9.95462  -18.99849
       H   -17.95753  -18.40010  -18.12930
       O   -18.37602  -18.18721  -17.27390
      H1   -18.28034  -17.19812  -17.33712
       H   -12.86411  -19.24236  -18.45058
       O   -13.36384  -18.37712  -18.40244
      H1   -12.77352  -17.99126  -19.11617
       H   -14.20006  -17.59070  -13.53890
       O   -13.32190  -17.78089  -13.16797
      H1   -13.50900  -17.45355  -12.19632
       H   -16.76016  -13.34996  -13.68946
       O   -16.36401  -13.43131  -12.84774
      H1   -15.50265  -13.60493  -13.22904
       H   -16.15456  -13.05617  -16.77214
       O   -15.73467  -13.50538  -16.04588
      H1   -15.68914  -14.47005  -16.21941
       H   -14.44624  -12.54820  -16.50017
       O   -13.67883  -11.96020  -16.61897
      H1   -13.49089  -11.47246  -15.81478
       H   -14.09964  -12.39891  -11.90842
       O   -14.06464  -11.44155  -12.01350
      H1   -14.58837  -11.28592  -12.84840
       H    -9.61639  -13.01665  -15.56619
       O    -9.45282  -12.92684  -16.48500
      H1    -9.96961  -13.57627  -16.96105
       H   -14.91693  -15.41835  -18.48193
       O   -14.76205  -15.06187  -19.38184
      H1   -14.81465  -14.09330  -19.33704
       H   -18.47915  -13.85552   -8.43177
       O   -18.29757  -13.57988   -9.37140
      H1   -17.59921  -12.96760   -9.28728
       H   -12.92619  -13.58811  -11.59134
       O   -13.57342  -14.06565  -12.18464
      H1   -13.88835  -14.65244  -11.50232
       H   -19.01362  -18.25708   -9.10882
       O   -18.62448  -18.90423   -8.44692
      H1   -18.74971  -18.40762   -7.60774
       H   -15.50376  -16.97293  -15.50134
       O   -15.49296  -17.05465  -14.55081
      H1   -15.99624  -17.83997  -14.31839
       H   -10.49741  -19.18637  -15.44243
       O    -9.68690  -18.96532  -14.87147
      H1    -9.85184  -18.03596  -14.71541
       H   -16.43501   -8.73201  -19.67299
       O   -16.23676   -7.82384  -19.90867
      H1   -15.93954   -7.46988  -19.01036
       H   -14.26950   -8.74725  -17.00270
       O   -14.65159   -9.41113  -17.58584
      H1   -14.31823  -10.21958  -17.19464
       H   -16.96806  -11.82231  -12.45132
       O   -17.24734  -10.88394  -12.46246
      H1   -17.73453  -10.71840  -11.61483
       H   -19.17330  -15.61151  -18.35985
       O   -18.26037  -15.63306  -17.97956
      H1   -17.89484  -15.21257  -18.75145
       H   -17.54471   -9.27420  -16.19228
       O   -17.72827   -8.55862  -16.82528
      H1   -17.00446   -8.59194  -17.46606
       H   -17.13111  -15.26809  -11.92916
       O   -17.71244  -15.59558  -11.24688
      H1   -17.81305  -14.89324  -10.58479
       H   -14.81215  -16.35593  -10.26204
       O   -13.94111  -16.44849  -10.69524
      H1   -13.42129  -15.98682  -10.02152
       H   -12.83753  -13.47368  -16.57489
       O   -12.29219  -14.30822  -16.52869
      H1   -12.30535  -14.53607  -15.55503
       H   -16.93163  -17.92867   -9.15947
       O   -16.39982  -17.26280   -9.58393
      H1   -17.07659  -16.88709  -10.21072
       H   -10.24012  -16.63417  -19.18762
       O    -9.44413  -16.85839  -18.62574
      H1    -9.47842  -17.82221  -18.71932
       H   -15.95022  -17.16141  -17.52890
       O   -15.40849  -16.41255  -17.23181
      H1   -14.59068  -16.87805  -17.38244
       H    -9.10252  -15.74775  -15.33467
       O    -9.62888  -16.15987  -14.57204
      H1   -10.41932  -15.65056  -14.67015
       H   -18.03898  -13.49947  -18.04700
       O   -17.54953  -12.63309  -17.91543
      H1   -18.34037  -12.06896  -17.80633

