90
frame 5 | Written by MDAnalysis XYZWriter (release 2.4.3)
       H     0.61111  -10.04461  -11.34687
       O     0.97706   -9.47538  -12.01961
      H1     0.63489   -9.69324  -12.93025
       H    -0.82138   -6.72508  -10.84912
       O    -1.43250   -7.07000  -10.19727
      H1    -2.26180   -6.45229  -10.24634
       H    -1.97604  -11.39668  -16.75410
       O    -1.83719  -12.29372  -16.42890
      H1    -1.19628  -12.70486  -16.98811
       H     4.34887  -13.11593  -14.59128
       O     4.08698  -13.67589  -15.35837
      H1     4.54067  -14.52535  -15.18242
       H     1.03403   -7.65768  -11.77777
       O     1.15150   -6.83685  -11.30262
      H1     1.40039   -7.06486  -10.42060
       H    -1.53745  -14.90629  -18.03138
       O    -1.06052  -14.10672  -18.41926
      H1    -0.54135  -14.61374  -19.13256
       H    -3.73957  -10.29044  -12.81060
       O    -4.06366  -10.60950  -11.96059
      H1    -3.57499  -10.08972  -11.32753
       H     3.48320  -11.06718  -15.70653
       O     2.84056  -10.33302  -15.61615
      H1     3.36360   -9.60700  -15.28952
       H    -3.08944  -13.63453  -16.50006
       O    -3.80654  -14.27871  -16.51182
      H1    -3.44933  -15.12927  -16.83569
       H     2.42767  -13.94014  -16.18719
       O     1.59169  -13.56820  -16.59755
      H1     1.24686  -14.35343  -17.03366
       H    -3.10815   -9.68143  -17.24371
       O    -2.30071   -9.57185  -16.73594
      H1    -2.51766   -9.50563  -15.81128
       H     1.61860  -14.70162  -12.07396
       O     1.61405  -14.75907  -13.02817
      H1     0.97161  -14.10131  -13.37980
       H    -1.58374   -7.27326  -15.44065
       O    -1.26742   -7.45886  -14.54941
      H1    -0.72008   -8.26206  -14.64046
       H    -0.52877  -11.69278  -10.66886
       O     0.19773  -11.33026  -10.14600
      H1     0.81331  -12.01463  -10.40181
       H    -4.54332   -9.34030  -14.74154
       O    -3.65506   -9.25403  -14.43491
      H1    -3.54462   -8.39124  -13.96933
       H     5.85017   -7.93110  -15.74952
       O     6.51953   -7.83927  -16.45723
      H1     6.35245   -7.02397  -17.02114
       H     5.25832   -8.92222  -17.99619
       O     4.69069   -9.12768  -18.75325
      H1     5.23061   -9.47451  -19.48573
       H     3.77366  -13.02694  -18.39479
       O     4.59402  -13.47963  -18.14704
      H1     4.59148  -13.56641  -17.20690
       H     1.75771  -12.53859  -17.99170
       O     2.22231  -12.23861  -18.84229
      H1     1.97025  -11.30250  -19.00526
       H     4.92931  -10.28536  -12.15717
       O     4.85933  -11.12969  -12.49971
      H1     3.91048  -11.36956  -12.42402
       H    -2.48912  -11.59593  -11.57971
       O    -1.80733  -12.31765  -11.58144
      H1    -2.32996  -13.12042  -11.43624
       H     4.21630   -7.45808  -14.33677
       O     4.67912   -8.21794  -14.56611
      H1     5.05500   -8.57086  -13.71278
       H     4.32798   -5.15530  -13.34509
       O     4.71664   -5.21550  -14.24870
      H1     3.95408   -5.01341  -14.84287
       H    -0.23823   -6.48780  -19.31757
       O    -0.32965   -5.71041  -18.75122
      H1     0.53519   -5.27754  -18.73628
       H     2.49440   -3.59537  -15.81340
       O     2.39868   -4.56426  -15.82331
      H1     2.63773   -4.77744  -16.75728
       H    -0.92216  -12.89280  -14.74027
       O    -0.40886  -12.75840  -13.91630
      H1    -1.07572  -12.65149  -13.23126
       H    -2.24336   -7.88739  -17.20293
       O    -2.10784   -6.96359  -16.99273
      H1    -1.36763   -6.68612  -17.53262
       H    -0.33759   -5.63301  -14.13496
       O     0.39618   -5.03608  -13.95453
      H1     0.90765   -5.04987  -14.76421
       H     0.10241  -10.90480  -14.77088
       O     0.14993   -9.94736  -14.75873
      H1     0.88228   -9.74380  -15.32442
       H     2.14730  -12.12553  -13.00774
       O     2.29425  -11.67106  -12.15302
      H1     1.84420  -10.76710  -12.17110

