90
frame 3 | Written by MDAnalysis XYZWriter (release 2.4.3)
       H     4.14719    6.46354  -12.75615
       O     4.41334    7.41053  -12.79531
      H1     3.63645    7.77029  -12.33788
       H     1.25884    4.52145   -9.36239
       O     0.50404    4.92860   -8.80594
      H1    -0.04993    5.28723   -9.56537
       H    -1.49372    0.41301  -13.79100
       O    -1.40983   -0.22346  -13.02694
      H1    -2.20904   -0.07422  -12.48380
       H     5.20483   -0.70590   -5.90760
       O     5.43016   -0.29835   -6.71765
      H1     6.11390   -0.91377   -7.04313
       H     2.51924    1.68997   -9.17259
       O     1.98078    2.30707   -9.63249
      H1     1.83995    1.85719  -10.44948
       H     4.46059    3.23263  -10.11003
       O     5.25418    3.10058  -10.58506
      H1     5.62704    4.00496  -10.64136
       H     3.82007    2.16553  -13.36594
       O     4.30111    1.45602  -12.90596
      H1     4.71588    1.88939  -12.12412
       H     0.67549    4.61346  -13.25122
       O     0.61248    4.84492  -12.27362
      H1     0.73463    3.98687  -11.85628
       H     3.76907   -2.74368   -9.61745
       O     3.03744   -3.19048   -9.17560
      H1     2.96315   -2.72160   -8.31122
       H     0.27896   -2.16963  -12.70548
       O    -0.02308   -2.46888  -11.83118
      H1     0.53678   -3.14808  -11.47407
       H    -1.73523    3.86245  -10.71488
       O    -2.11162    3.08948  -11.20226
      H1    -2.76252    2.80600  -10.49846
       H     1.29495    2.21613  -13.30648
       O     1.90036    2.59063  -13.97059
      H1     1.31598    2.93178  -14.67086
       H    -0.19803    0.87964  -12.18790
       O     0.11926    1.79731  -12.08755
      H1    -0.80337    2.11436  -11.78492
       H     2.00474   -0.55064  -10.02229
       O     1.62527   -0.33930  -10.91517
      H1     1.04117   -1.02137  -11.17834
       H     1.88958   -2.23220   -6.74632
       O     2.83929   -2.09082   -6.79809
      H1     3.20695   -2.93758   -6.43629
       H     2.53148    0.44502  -16.14500
       O     3.49065    0.36227  -15.77474
      H1     3.45475    0.47405  -14.77508
       H     3.28416   -0.87862  -11.56909
       O     3.96284   -1.57646  -11.62687
      H1     4.34645   -1.39991  -12.49895
       H     6.44313   -1.01655   -9.42767
       O     5.98645   -0.22855   -9.76795
      H1     5.27602   -0.59316  -10.31535
       H    -1.45115   -2.25472   -7.85083
       O    -0.97204   -2.04603   -8.64827
      H1    -0.60759   -1.15574   -8.57691
       H     5.74518    1.65883   -6.65747
       O     5.73901    2.65236   -6.73096
      H1     4.78428    2.82747   -6.66813
       H    -0.26828    1.71308   -8.06988
       O    -0.41525    0.85121   -8.51826
      H1     0.17307    0.83406   -9.28312
       H    -0.20282    3.52766   -7.86632
       O    -0.80552    3.25397   -7.14195
      H1    -0.42897    3.78020   -6.41155
       H     1.29805    6.19507   -4.48652
       O     1.83143    6.40435   -5.29530
      H1     1.06169    6.42150   -5.89723
       H     5.28827    6.75817  -10.99820
       O     5.87094    5.99828  -10.85508
      H1     6.66194    6.35339  -10.38318
       H    -2.09434    6.70407  -10.86660
       O    -1.76479    5.97239  -10.28346
      H1    -1.84442    6.35311   -9.35463
       H     1.41235    6.43113  -11.95120
       O     1.66102    7.33546  -11.83185
      H1     0.94347    7.78327  -12.34588
       H     4.35612    0.44661   -9.12470
       O     3.48563    0.19294   -8.72133
      H1     3.74683   -0.41082   -7.99454
       H    -2.12759    1.11381   -8.81039
       O    -3.05393    1.37927   -8.95711
      H1    -3.19816    0.77085   -9.74774
       H     6.77427    2.94665   -8.00667
       O     7.30738    3.23962   -8.79716
      H1     6.48747    3.16574   -9.36618
       H     2.89754    5.08792   -6.44225
       O     3.13497    4.57191   -7.21409
      H1     2.27201    4.55521   -7.65177

