90
frame 3 | Written by MDAnalysis XYZWriter (release 2.4.3)
       H    13.60679    2.14545   -6.39301
       O    13.07137    1.32440   -6.55476
      H1    13.45530    1.15642   -7.42115
       H     9.86285   -2.66146  -13.78232
       O     9.10802   -2.23334  -13.27072
      H1     8.86705   -1.40355  -13.80229
       H    17.90205    0.32479  -11.15045
       O    18.14553    1.09543  -11.69164
      H1    18.95058    1.44165  -11.34266
       H    11.86824   -2.58319  -14.87137
       O    11.58895   -3.30778  -14.30863
      H1    11.71411   -4.00118  -14.96033
       H    14.59525   -0.81892  -11.48898
       O    15.13835   -0.02166  -11.48020
      H1    14.93816    0.31397  -10.57408
       H    14.25495   -4.39849  -10.25579
       O    13.69764   -3.59990  -10.41719
      H1    12.80243   -3.94405  -10.41301
       H    16.25007   -1.06984  -10.53142
       O    17.16799   -1.48840  -10.38035
      H1    16.94009   -2.22529   -9.82105
       H     7.84409    0.46559  -14.58647
       O     8.47837   -0.19800  -14.93903
      H1     9.33840    0.29930  -14.82581
       H    13.96632   -3.03919  -12.00442
       O    13.97542   -2.52378  -12.83381
      H1    13.18811   -2.93046  -13.31622
       H    17.00325    1.99115  -10.77238
       O    16.55503    2.16995   -9.89784
      H1    17.26791    2.73181   -9.52530
       H    11.45109    1.73566  -10.21014
       O    11.87864    2.44225  -10.71989
      H1    11.94001    3.22395  -10.20570
       H    15.20335    4.96907  -13.50367
       O    14.85519    5.86922  -13.56342
      H1    13.92865    5.82287  -13.87806
       H    10.34665   -0.79553  -10.14741
       O    10.46969    0.11193   -9.79804
      H1     9.73486    0.57304  -10.26054
       H    16.80746    4.13678  -11.86989
       O    16.94845    5.12363  -11.86360
      H1    17.80998    5.24726  -12.28194
       H    15.34412    0.90848   -8.59444
       O    14.65888    0.23321   -8.80998
      H1    15.14224   -0.52255   -8.45398
       H    11.99293    5.44386  -15.38327
       O    12.27673    5.61388  -14.47762
      H1    11.81595    4.91274  -13.93962
       H    18.04220   -1.40293  -15.52681
       O    17.85603   -2.38849  -15.64172
      H1    17.58493   -2.51338  -14.73026
       H    17.30055   -2.07848  -12.10980
       O    17.09424   -2.56545  -12.91422
      H1    16.14607   -2.53978  -12.98663
       H    12.84299    1.93949  -12.29900
       O    13.26827    1.39116  -12.96340
      H1    13.92286    0.95405  -12.41292
       H    15.73302    3.26022  -17.08358
       O    16.22550    2.48449  -16.66026
      H1    15.58453    1.82781  -16.54688
       H    13.01909    0.23884  -18.12123
       O    12.24866    0.79562  -17.85314
      H1    12.29296    0.74697  -16.89384
       H    10.44855    4.85975  -12.44250
       O    10.74846    4.00587  -12.78494
      H1    11.15591    3.62162  -11.96052
       H    11.56097    0.77702  -14.97180
       O    10.84977    1.40455  -15.15697
      H1    10.96568    2.12513  -14.47843
       H    12.42155   -0.74445  -13.85544
       O    12.51117   -0.58250  -14.80042
      H1    13.41366   -0.84817  -15.07033
       H    15.51596    0.06089  -15.45056
       O    14.86605   -0.06911  -16.17731
      H1    15.21992   -0.89312  -16.60609
       H    19.40600    2.07639  -15.42614
       O    18.92827    2.85509  -15.77920
      H1    18.00310    2.60434  -16.00576
       H    12.09534    5.20700   -8.98974
       O    12.66298    4.88974   -9.69667
      H1    12.95386    5.67562  -10.14280
       H    13.92800    3.91416   -8.63804
       O    14.40174    3.15930   -8.26718
      H1    15.16516    3.16273   -8.87603
       H    16.07669    0.28872  -12.95779
       O    16.42374    0.32010  -13.87120
      H1    17.25541    0.80481  -13.70687
       H    15.81147    2.99332  -14.49285
       O    15.27288    3.29968  -13.81107
      H1    14.72262    2.56134  -13.47540

