90
frame 3 | Written by MDAnalysis XYZWriter (release 2.4.3)
       H   -17.38954  -17.32951    8.03079
       O   -18.01126  -17.28911    7.28542
      H1   -18.36857  -18.20741    7.35808
       H    -9.43890  -18.81567   14.56606
       O    -9.96208  -19.00487   15.39961
      H1    -9.24728  -19.42160   15.90107
       H   -14.02251  -18.06150    5.86059
       O   -13.74896  -17.77942    6.75449
      H1   -13.30011  -16.94502    6.68062
       H   -12.07749  -14.37353    6.56889
       O   -12.35521  -15.20105    7.03208
      H1   -13.25762  -14.96720    7.31587
       H   -13.60613  -12.06357   15.20546
       O   -14.22261  -11.69086   14.55492
      H1   -14.50643  -12.55172   14.06356
       H   -19.71176  -19.39473   15.47698
       O   -19.43875  -18.63074   14.87347
      H1   -19.04104  -19.22095   14.21176
       H    -9.60087  -19.69184   12.61654
       O    -9.42522  -18.72550   12.77677
      H1   -10.14327  -18.25334   12.22668
       H   -15.01083  -18.75938   15.22122
       O   -14.45362  -18.98368   15.97419
      H1   -13.72314  -19.43736   15.50974
       H   -13.05553  -11.36035   10.83604
       O   -12.64727  -12.07074   11.32633
      H1   -13.09770  -12.88688   11.09125
       H   -15.04117  -20.02845   13.07003
       O   -15.36473  -19.14000   13.32227
      H1   -14.86822  -18.52824   12.78143
       H   -15.70932  -14.35505    8.97821
       O   -15.10995  -15.01392    8.56900
      H1   -15.35694  -15.83333    8.91266
       H   -10.43192  -15.48476    9.72358
       O   -10.72512  -16.30468    9.25451
      H1   -11.34138  -15.87054    8.63378
       H   -15.64934  -18.86449    9.15517
       O   -15.78725  -17.90459    8.92963
      H1   -15.14838  -17.86204    8.24692
       H   -11.27612  -17.43646   10.65609
       O   -11.49959  -17.78253   11.55063
      H1   -11.69366  -16.99950   12.07337
       H    -8.92463  -16.05503   13.45651
       O    -9.48260  -15.24057   13.66810
      H1    -9.52332  -14.78641   12.81837
       H   -14.09964  -17.84910   11.03070
       O   -14.45470  -17.12922   11.58356
      H1   -15.29787  -16.93285   11.16495
       H   -17.70424  -13.82002   10.28594
       O   -17.05877  -13.35598    9.79027
      H1   -17.56005  -13.15648    8.95888
       H   -11.99982  -13.72844   13.74624
       O   -11.57144  -12.90098   13.90620
      H1   -12.06407  -12.27331   13.41022
       H   -13.30249  -15.29222   11.04295
       O   -13.44185  -14.47768   10.54215
      H1   -14.00293  -14.91826    9.89909
       H   -12.51984  -16.44740   13.94577
       O   -12.14848  -15.80082   13.36813
      H1   -11.23986  -15.74280   13.78793
       H   -17.14219  -16.57504   16.28601
       O   -17.63007  -16.59617   15.40134
      H1   -18.19927  -17.39938   15.44189
       H    -9.07610  -16.18613    8.26751
       O    -8.28589  -16.37586    7.68303
      H1    -8.76504  -16.82261    6.96722
       H   -15.26317  -15.99698   18.09661
       O   -15.64647  -16.69263   17.53140
      H1   -14.96935  -16.91577   16.88235
       H   -10.38088  -15.93040   15.69057
       O   -11.16611  -16.46517   15.91132
      H1   -10.97167  -17.39539   15.72519
       H   -15.11318  -14.96589   12.90233
       O   -14.66508  -14.06057   13.05177
      H1   -14.16690  -13.95698   12.20593
       H   -17.21777  -16.25181   13.47413
       O   -16.83474  -15.65528   12.78444
      H1   -17.56180  -15.74014   12.12134
       H   -11.12182  -13.73480   11.11464
       O   -10.29308  -14.23387   10.93784
      H1    -9.62504  -13.55707   10.90752
       H   -16.55789  -13.40203   12.96329
       O   -16.98159  -12.53241   12.95125
      H1   -16.76178  -12.07546   13.76644
       H    -9.21869  -18.91292    5.14381
       O    -9.66832  -18.21860    5.60447
      H1   -10.41605  -18.60176    6.15063
       H   -15.76787  -16.71381    4.54759
       O   -16.39338  -17.42200    4.79475
      H1   -16.60979  -17.29824    5.75872

