90
frame 3 | Written by MDAnalysis XYZWriter (release 2.4.3)
       H     4.85170   11.90402   15.25775
       O     5.59310   11.24389   15.06376
      H1     6.28208   11.86612   14.78323
       H     4.69040    9.04607   15.15063
       O     3.78180    8.80262   14.95883
      H1     3.78330    7.90044   14.52303
       H    11.43246   13.54557   12.42595
       O    10.94390   14.03592   11.78031
      H1    10.02033   13.92463   12.14853
       H    10.60899    9.62567   12.01077
       O     9.72473    9.95058   12.15876
      H1     9.22481    9.52264   11.45107
       H     8.38806    9.81567   18.52516
       O     8.12147   10.70150   18.71031
      H1     7.96090   10.71482   19.67226
       H     4.47342   10.82382   17.44052
       O     5.08680   10.95508   18.14039
      H1     5.87896   11.02370   17.64291
       H     3.82726   12.50734   12.72837
       O     4.20763   13.31402   12.47002
      H1     4.78245   13.09968   11.73808
       H    10.79890    7.45052   13.42980
       O     9.79380    7.57372   13.44395
      H1     9.59132    8.10225   12.66931
       H     8.90112   11.01738   13.48494
       O     8.52097   11.46184   14.27935
      H1     8.56386   12.41787   14.04586
       H    13.34404    9.76726   11.00662
       O    12.38501    9.70703   11.14885
      H1    12.09582   10.60909   10.78744
       H     6.94134    7.53553   12.99436
       O     7.32930    6.94015   12.37734
      H1     8.26881    6.96832   12.57929
       H    13.17708    7.95966   13.74651
       O    12.45486    7.50075   13.29265
      H1    12.45793    8.00723   12.46743
       H     7.75911   14.13757   14.11702
       O     8.53873   14.09794   14.68816
      H1     8.91644   14.96386   14.60157
       H     6.39303   10.36853    9.79853
       O     5.81249   11.00966    9.33812
      H1     5.00787   10.67486    9.61543
       H     9.75731   11.21431   15.45439
       O    10.22769   11.02431   16.24062
      H1     9.78665   10.27588   16.70319
       H    13.04009   12.17876   16.00611
       O    12.99257   11.20894   15.96230
      H1    12.05780   11.22546   15.97099
       H     9.49683   12.45448    9.30023
       O     8.73091   12.53127    8.73841
      H1     8.16315   12.07670    9.38237
       H     8.80389    8.39536   14.84302
       O     8.14978    8.81746   15.46450
      H1     8.18248    9.81215   15.35845
       H     5.56320   14.30385   15.98212
       O     5.58208   14.03348   16.95357
      H1     6.52889   13.92332   17.16231
       H     7.74957   11.25434   11.63625
       O     7.46305   12.01302   11.05532
      H1     6.63922   11.56126   10.73902
       H    10.25822    6.12089   11.09539
       O    10.01937    6.91915   10.57977
      H1     9.30261    6.53992   10.08429
       H    13.09284   12.79555   14.08188
       O    12.75152   12.46585   13.23279
      H1    13.01867   11.50296   13.32568
       H     7.81271    8.45214    9.41525
       O     7.64358    9.10656   10.11015
      H1     7.25728    8.56635   10.80370
       H     7.70671   13.58888   11.18459
       O     8.09911   14.51366   11.28684
      H1     8.39609   14.68430   10.38098
       H     5.20215   10.28574   12.22097
       O     6.08988   10.19129   12.55990
      H1     5.98950   10.72684   13.35440
       H     4.92866   14.21812   13.79684
       O     5.67935   14.68956   14.19122
      H1     5.26674   15.53407   14.13410
       H     8.33292    6.85154   15.50558
       O     8.16710    5.96744   15.80681
      H1     7.55378    5.99923   16.54296
       H    11.17241   12.75140   10.59799
       O    11.27796   12.08790    9.92570
      H1    12.20354   12.32228    9.60373
       H     8.72857   13.57650   16.77843
       O     8.19521   13.40210   17.58861
      H1     8.34245   12.44753   17.77217
       H    10.28641    8.58470   19.07449
       O     9.95029    8.94165   18.24448
      H1     9.87759    8.19085   17.69354

