90
frame 2 | Written by MDAnalysis XYZWriter (release 2.4.3)
       H   -10.75386   -5.83236  -19.49693
       O   -11.08245   -6.57651  -19.01913
      H1   -11.00471   -7.26137  -19.66804
       H   -12.48923  -15.06866  -13.53864
       O   -11.97247  -15.37571  -14.34657
      H1   -12.34579  -16.30598  -14.40029
       H    -8.21402  -11.64093  -13.63476
       O    -8.03045  -12.36411  -14.29449
      H1    -7.82797  -11.91531  -15.12704
       H    -9.90007   -9.28512  -15.68756
       O    -9.31641   -8.64952  -15.43676
      H1    -8.77146   -9.01870  -14.73195
       H   -11.82202  -11.26709  -18.72221
       O   -12.54574  -11.27402  -19.35273
      H1   -13.12717  -10.53015  -19.13581
       H   -10.59986  -11.38033  -17.07347
       O   -10.52923  -10.49030  -17.48966
      H1    -9.60539  -10.52070  -17.80926
       H    -9.11220  -16.04432  -17.31500
       O    -8.54150  -15.54873  -16.72132
      H1    -8.92582  -14.69454  -16.71478
       H   -16.54454  -13.20747  -15.87203
       O   -15.56444  -13.38422  -15.78063
      H1   -15.73105  -14.40975  -15.69400
       H   -14.22055  -12.35161  -16.13611
       O   -13.46026  -11.85437  -16.49404
      H1   -13.04944  -11.45739  -15.70478
       H   -10.51655  -12.00562  -12.62940
       O   -10.41826  -11.30673  -13.32964
      H1   -10.74053  -10.49738  -12.83395
       H   -17.97234  -11.52439  -19.12674
       O   -17.31516  -11.21079  -18.50401
      H1   -17.62364  -11.61763  -17.69220
       H    -9.53978  -12.74557  -15.27601
       O    -9.96155  -13.00854  -16.11177
      H1   -10.78570  -13.41739  -15.84847
       H   -13.45462  -15.25203  -17.99417
       O   -13.91917  -15.63575  -18.80863
      H1   -14.60502  -14.94901  -18.90980
       H   -12.75031   -9.26437  -13.77668
       O   -12.45229   -9.05069  -14.65700
      H1   -11.51354   -9.24230  -14.60463
       H   -17.00385   -9.36059  -19.50286
       O   -17.13695   -8.40297  -19.64884
      H1   -16.29763   -8.05261  -19.38652
       H    -9.50080   -7.05281  -18.08526
       O    -8.60139   -7.45358  -17.94725
      H1    -8.81100   -7.75022  -17.01756
       H   -14.34734   -9.16106  -17.62158
       O   -14.48707   -9.95561  -18.11601
      H1   -14.08496  -10.66269  -17.58947
       H    -6.14859  -10.54665  -16.41658
       O    -6.81920  -11.32137  -16.35147
      H1    -7.19031  -11.46962  -17.21025
       H    -8.31523   -9.26560  -18.83944
       O    -8.33276  -10.20595  -18.90311
      H1    -7.39135  -10.31279  -19.28057
       H   -18.47249  -15.17174  -19.21290
       O   -17.62630  -14.87826  -18.82040
      H1   -17.03161  -14.66063  -19.51617
       H   -16.38861   -8.73205  -16.08221
       O   -17.02955   -9.41801  -16.31067
      H1   -16.57076   -9.87056  -17.04587
       H   -13.00716  -13.54697  -16.87686
       O   -12.61029  -14.47563  -16.84057
      H1   -12.89434  -14.82909  -15.94451
       H   -15.79613   -6.58976  -17.98882
       O   -15.37393   -6.62669  -18.83348
      H1   -14.41174   -6.90705  -18.66243
       H   -14.06853  -12.30752  -19.15353
       O   -14.83982  -12.94539  -19.38079
      H1   -15.64197  -12.43531  -19.03834
       H   -10.67525  -16.67861  -19.33933
       O   -10.02833  -16.88682  -18.60536
      H1    -9.64246  -17.70891  -18.87217
       H   -13.63504   -4.74976  -15.77662
       O   -13.92711   -5.35662  -15.06355
      H1   -13.51385   -6.19417  -15.44805
       H   -16.37503  -16.40008  -16.41273
       O   -15.62524  -16.12358  -15.88500
      H1   -14.99296  -16.25991  -16.58482
       H   -12.73146   -5.06936  -17.90233
       O   -12.56854   -4.42845  -17.22824
      H1   -12.78749   -3.63821  -17.76145
       H   -18.19339  -13.73587  -17.67037
       O   -18.10492  -13.12092  -16.93913
      H1   -18.99897  -13.16442  -16.58563
       H   -12.64981   -7.89483  -16.24355
       O   -12.92577   -7.28694  -16.96471
      H1   -12.04313   -7.10784  -17.22367

