90
frame 5 | Written by MDAnalysis XYZWriter (release 2.4.3)
       H     6.87737    4.21615   10.95877
       O     6.11005    3.61056   11.05271
      H1     6.46607    2.78468   11.35172
       H     3.90811   -1.91018   13.35433
       O     4.35804   -2.74951   13.47928
      H1     3.72832   -3.30118   13.94272
       H     0.06012   -1.63178   17.83051
       O     0.36352   -2.10781   17.08542
      H1     1.09205   -2.66309   17.33901
       H    -0.46733   -0.94208   13.29661
       O    -1.28874   -0.98203   12.72022
      H1    -1.64541   -0.11972   12.83089
       H     5.29072   -3.02643   16.16337
       O     6.01889   -2.87467   15.54214
      H1     5.64731   -2.68003   14.63272
       H     5.15951    3.93490   14.88989
       O     5.15652    2.99567   14.59934
      H1     4.44309    2.65492   15.12624
       H     4.67139   -1.07704   17.23755
       O     4.67395   -0.44900   16.49370
      H1     5.35550   -0.88018   15.95013
       H    -0.11203    0.85585   15.29963
       O    -0.12477    1.82979   15.52616
      H1    -0.54310    1.66626   16.35216
       H     3.51877    0.33464   10.25489
       O     3.98214    0.00290    9.49317
      H1     4.58210    0.71209    9.25452
       H     0.21413   -3.82326   14.46182
       O    -0.75328   -3.60630   14.28703
      H1    -0.79008   -2.68814   14.15353
       H     3.28121    0.65172   13.77079
       O     3.15351   -0.25767   14.15223
      H1     3.70082   -0.28718   14.99377
       H     1.35917   -0.35198   14.82072
       O     0.48520   -0.70931   14.68678
      H1     0.29664   -1.32348   15.41574
       H     7.39840    2.76159   13.87007
       O     7.89613    3.11954   13.11114
      H1     7.25921    3.60059   12.61949
       H     3.03966    2.08803   19.17031
       O     3.78715    1.63355   18.69890
      H1     4.43552    2.37545   18.54536
       H     7.01972   -2.94665   17.86187
       O     7.83350   -3.51214   18.05115
      H1     8.52616   -3.14952   17.47337
       H     7.59461   -4.11080   12.73731
       O     7.82677   -3.18504   12.60267
      H1     8.47701   -2.95393   13.26338
       H     5.06245   -4.00537   12.03402
       O     5.20147   -4.97729   11.93795
      H1     6.14655   -5.23238   11.82878
       H     1.31495    4.67025   17.42864
       O     1.84732    4.82182   16.63106
      H1     2.32469    4.01451   16.44567
       H     1.85308    2.13901   15.97287
       O     2.76156    2.31639   16.10902
      H1     2.96195    1.77891   16.93937
       H     1.61392   -4.20433   13.05260
       O     1.95147   -4.31485   13.96601
      H1     1.98529   -5.30305   14.08145
       H     6.24414   -0.01386   11.15872
       O     6.04515    0.88523   11.41033
      H1     5.10777    0.95214   11.75675
       H     6.35350    3.83196   17.10827
       O     5.87054    3.65168   17.94405
      H1     6.53562    3.23049   18.51831
       H     0.87677    0.56649   10.66236
       O     1.26593    1.50702   10.59802
      H1     1.31380    1.72297    9.61079
       H     7.76644   -0.21267   17.80825
       O     6.94354   -0.38335   18.24144
      H1     6.25949   -0.20575   17.59885
       H     4.17685   -3.20426   17.65965
       O     4.81933   -2.62472   18.10826
      H1     4.60484   -2.71390   19.05009
       H     6.62945   -5.54253   14.75333
       O     7.46836   -5.25715   15.14041
      H1     7.25189   -4.29627   15.26976
       H     3.87394    2.61202   13.35238
       O     3.57118    1.88759   12.79763
      H1     3.13422    2.28044   12.02719
       H     8.59574    1.70517   16.21300
       O     9.08690    0.89014   16.17507
      H1     9.97788    1.16310   15.88048
       H     0.37589    4.45406   11.11205
       O     0.73500    3.87249   11.85306
      H1     0.85659    3.00389   11.40343
       H     2.22587   -4.69109   17.06099
       O     2.88954   -4.05142   16.77770
      H1     2.74491   -3.84491   15.82593

