90
frame 0 | Written by MDAnalysis XYZWriter (release 2.4.3)
       H    10.91585   -1.20110   -0.60262
       O    11.49413   -1.26772   -1.41753
      H1    11.98134   -2.14172   -1.35586
       H    15.92949   -4.74167    2.33508
       O    16.00466   -5.03567    1.35516
      H1    15.08927   -5.42973    1.18618
       H    13.33235  -11.01266    0.73359
       O    12.88502  -10.20050    0.84893
      H1    12.04851  -10.29688    0.46666
       H    17.25766   -9.52996   -0.00490
       O    17.28958   -8.96834    0.77296
      H1    16.67159   -9.34757    1.38205
       H    13.59911   -4.74653   -4.27605
       O    14.02361   -4.07891   -3.70388
      H1    14.89777   -4.45728   -3.46419
       H    13.08559   -4.32338   -1.75189
       O    12.25893   -4.02130   -1.30400
      H1    11.63610   -3.99749   -2.05113
       H    14.55240   -6.61656    4.45469
       O    13.76318   -6.06655    4.55963
      H1    13.38272   -6.37016    5.41839
       H    12.40096   -4.59615    6.75555
       O    13.24751   -4.24519    7.02335
      H1    13.50938   -3.69295    6.32687
       H    14.12374   -9.31413    1.91104
       O    15.01221   -9.32978    2.23956
      H1    15.14723   -8.54133    2.75786
       H    11.94992   -9.31905    4.47448
       O    12.26560   -9.54956    3.58920
      H1    12.53723  -10.46361    3.60907
       H    17.26799   -4.12644   -1.71925
       O    16.74736   -3.69066   -2.43533
      H1    16.32286   -2.96595   -1.93353
       H    17.02090   -7.29250    3.99181
       O    16.13166   -7.78215    3.98245
      H1    16.07931   -8.08753    4.87314
       H    14.62940   -1.35833   -2.69186
       O    15.02171   -1.47009   -1.77301
      H1    15.61838   -0.72197   -1.61948
       H    14.19431   -4.35808    4.51656
       O    14.35875   -3.36685    4.55234
      H1    15.11452   -3.29997    5.13016
       H     9.58693   -6.31345    4.75340
       O    10.25422   -5.71660    4.36346
      H1    10.67385   -6.19298    3.62111
       H    13.17017   -8.91129   -0.35984
       O    13.49058   -8.13678   -0.84289
      H1    14.44591   -8.21079   -1.00327
       H    17.00148   -1.87989    5.44748
       O    17.11598   -2.84340    5.47047
      H1    17.35224   -3.01627    6.35573
       H    12.46481   -8.44326   -2.28945
       O    11.92811   -8.94428   -2.95427
      H1    11.95430   -9.86694   -2.74773
       H    14.42460   -3.60873    1.00691
       O    14.02068   -2.75701    0.97709
      H1    14.15820   -2.37288    0.16599
       H    19.34337   -3.95184    3.59542
       O    18.38287   -4.01100    3.51087
      H1    17.98141   -3.56472    4.30438
       H    12.72443   -2.23363    1.95500
       O    11.99219   -1.85592    2.46287
      H1    11.87245   -2.43032    3.21009
       H    19.00076   -8.81004    1.16839
       O    19.77387   -8.49255    1.72353
      H1    20.19836   -7.81850    1.09218
       H    13.01808   -5.26833   -0.12298
       O    13.57827   -5.77546    0.48635
      H1    13.65891   -6.60607   -0.01867
       H    15.17665   -1.47016    2.70563
       O    15.20778   -0.53134    2.76943
      H1    14.33252   -0.14270    2.83416
       H    18.85032   -7.17189    2.69604
       O    18.53070   -6.72918    3.55702
      H1    18.35184   -5.83398    3.26724
       H    17.17169   -2.60635    1.00220
       O    17.86027   -2.24633    1.51117
      H1    18.09305   -2.95935    2.09178
       H    12.07148   -6.37604    1.54043
       O    11.47986   -6.86668    2.16809
      H1    11.87113   -7.71769    2.42311
       H     9.96612   -7.52793    1.38853
       O     9.30284   -7.67673    0.74085
      H1     8.53889   -7.19329    0.99408
       H    16.61571   -7.51059   -2.31493
       O    16.11407   -7.76936   -1.50353
      H1    16.84492   -7.85226   -0.83006
       H    20.22236   -6.09848    5.88358
       O    19.30977   -6.10906    6.17003
      H1    18.91849   -6.30093    5.23743

