90
frame 3 | Written by MDAnalysis XYZWriter (release 2.4.3)
       H    -1.87187    0.29508   16.75387
       O    -1.18390   -0.32997   16.49768
      H1    -0.48007   -0.20347   17.22524
       H    -7.47316   -5.00586   15.54038
       O    -6.77157   -4.47868   15.10618
      H1    -7.19862   -3.63642   14.87819
       H    -3.68788   -3.61971   12.50765
       O    -4.07583   -2.78745   12.18575
      H1    -3.72036   -2.68069   11.24224
       H   -11.70220   -3.79850   15.13460
       O   -11.63122   -3.31208   15.93894
      H1   -12.24967   -3.91282   16.40697
       H    -7.78563   -5.21612   17.78309
       O    -7.47853   -4.91517   18.65064
      H1    -8.30889   -4.71502   19.07381
       H   -10.05679   -1.90638   18.64776
       O   -10.59735   -2.25218   19.39670
      H1   -11.45376   -2.36946   18.94790
       H    -8.32849    3.29388   14.45620
       O    -7.80680    2.70020   13.88239
      H1    -7.36306    2.02830   14.39974
       H    -5.48867   -6.84133   19.10834
       O    -5.96200   -6.95429   19.92918
      H1    -6.89788   -6.91974   19.69623
       H    -8.01088   -6.79454   16.25036
       O    -8.76911   -6.18464   16.32240
      H1    -9.22321   -6.36351   15.40803
       H    -6.73302   -9.12290   17.28981
       O    -6.73825   -8.42505   16.56970
      H1    -7.18912   -8.88343   15.83328
       H    -2.45358   -1.63835   17.31456
       O    -3.01080   -2.46267   17.28979
      H1    -2.38418   -3.11206   16.88984
       H    -9.46244   -3.06679   14.37038
       O    -8.98335   -2.50138   15.00334
      H1    -9.73120   -2.10397   15.47222
       H    -6.12892   -3.51416   18.12434
       O    -5.84349   -2.61791   17.89573
      H1    -4.88648   -2.61360   17.84085
       H    -6.18583   -5.32352   13.29351
       O    -6.02711   -5.44788   12.35050
      H1    -6.63753   -6.09521   11.99833
       H    -5.50278   -1.88400   14.66763
       O    -6.12541   -1.60546   15.32002
      H1    -5.77889   -2.14382   16.08814
       H    -9.04765   -0.00778   15.54428
       O    -9.97258   -0.03066   15.78375
      H1   -10.41302   -0.27060   14.94025
       H    -0.78565   -4.47352   19.08130
       O    -0.49607   -5.35419   19.44485
      H1    -1.08212   -5.92672   18.95200
       H    -2.10332   -3.46037   19.93387
       O    -1.71325   -2.61713   19.66495
      H1    -2.18224   -2.57897   18.83501
       H    -0.69547   -3.47702   15.22125
       O    -0.71188   -3.57962   16.19024
      H1     0.20002   -3.34786   16.40251
       H    -3.84175    0.48592   15.63815
       O    -3.52863    1.18843   16.25568
      H1    -3.78698    1.96014   15.74968
       H    -8.81354    0.33186   17.91530
       O    -8.89513    0.27442   18.86902
      H1    -8.17496   -0.35528   19.21707
       H    -8.49562   -1.32820   13.49168
       O    -8.70189   -1.14254   12.56263
      H1    -7.97888   -0.50529   12.36670
       H    -7.39606    1.39094   18.83225
       O    -6.76734    1.96694   18.42978
      H1    -7.32773    2.78956   18.32440
       H    -3.42641   -5.66197   19.35096
       O    -3.75689   -6.12945   18.50914
      H1    -3.23283   -6.98216   18.56471
       H    -2.66011   -0.54964   13.88310
       O    -3.59882   -0.24317   13.83189
      H1    -3.85008   -0.97543   13.26617
       H    -6.99910    1.40478   16.73350
       O    -7.27976    0.91132   15.90810
      H1    -6.64635    0.13328   15.89522
       H    -3.27731   -5.30572   13.95232
       O    -3.23830   -5.40910   12.97703
      H1    -4.23721   -5.36165   12.72316
       H    -9.09655   -3.65530   12.54278
       O    -9.84109   -4.16843   12.92349
      H1    -9.40239   -5.00526   13.11007
       H   -10.63364   -4.09451   18.91524
       O   -10.65516   -4.96890   18.56174
      H1   -10.09802   -4.85099   17.80424
       H    -4.11685   -5.67963   16.65133
       O    -4.12160   -5.22580   15.74162
      H1    -5.01246   -4.85697   15.63192

