90
frame 3 | Written by MDAnalysis XYZWriter (release 2.4.3)
       H    15.64077    5.14476  -20.02624
       O    14.87805    5.41565  -19.51375
      H1    15.28889    5.75575  -18.73051
       H    12.59066    4.71381  -17.47428
       O    11.79813    5.27056  -17.17586
      H1    11.07232    4.59575  -17.21516
       H    18.23921   -6.74373  -15.54186
       O    18.05283   -5.88020  -15.97810
      H1    18.92085   -5.70190  -16.37777
       H    17.75149   -5.50387  -14.12619
       O    17.90972   -5.21754  -13.24397
      H1    17.85190   -4.23731  -13.25305
       H    17.90205    0.32479  -11.15045
       O    18.14553    1.09543  -11.69164
      H1    18.95058    1.44165  -11.34266
       H    16.96643    7.08810  -15.94401
       O    17.77188    6.59145  -15.92600
      H1    18.30900    7.06295  -16.54535
       H    13.74248    3.46244  -18.90804
       O    13.51315    3.09267  -18.04922
      H1    13.16322    2.23061  -18.22623
       H    12.74522   -1.46727  -17.63588
       O    12.18255   -2.24365  -17.47519
      H1    11.25564   -1.87460  -17.32425
       H    18.33795    7.78704  -19.71802
       O    18.61293    7.35771  -18.89502
      H1    18.53385    6.43517  -19.10637
       H    16.19963   -3.66181  -18.44390
       O    16.36740   -3.92596  -19.39317
      H1    16.57346   -4.86754  -19.43193
       H    15.39524   -3.32875  -16.64797
       O    15.69326   -2.60278  -17.19834
      H1    16.58867   -2.43513  -16.84053
       H    18.04220   -1.40293  -15.52681
       O    17.85603   -2.38849  -15.64172
      H1    17.58493   -2.51338  -14.73026
       H    17.30055   -2.07848  -12.10980
       O    17.09424   -2.56545  -12.91422
      H1    16.14607   -2.53978  -12.98663
       H    12.48330   -3.86169  -17.10294
       O    12.52518   -4.71817  -16.67790
      H1    12.42659   -5.26171  -17.50142
       H    15.73302    3.26022  -17.08358
       O    16.22550    2.48449  -16.66026
      H1    15.58453    1.82781  -16.54688
       H    18.02706    4.45880  -18.15694
       O    17.20903    5.00109  -18.17550
      H1    17.15745    5.35087  -17.28139
       H    17.67852    0.21979  -18.92064
       O    16.83808    0.59917  -18.71347
      H1    17.09327    1.24442  -18.03377
       H    14.94947    6.96689  -16.32882
       O    14.81900    6.08968  -16.67241
      H1    14.63624    5.59532  -15.89049
       H    13.01909    0.23884  -18.12123
       O    12.24866    0.79562  -17.85314
      H1    12.29296    0.74697  -16.89384
       H    14.05889   -5.08194  -16.13100
       O    14.86177   -4.87500  -15.60655
      H1    15.41833   -5.63718  -15.81751
       H    19.82934   -4.35431  -17.45950
       O    19.60517   -3.43884  -17.72691
      H1    19.21294   -3.07558  -16.90122
       H    11.56097    0.77702  -14.97180
       O    10.84977    1.40455  -15.15697
      H1    10.96568    2.12513  -14.47843
       H    12.42155   -0.74445  -13.85544
       O    12.51117   -0.58250  -14.80042
      H1    13.41366   -0.84817  -15.07033
       H    15.51596    0.06089  -15.45056
       O    14.86605   -0.06911  -16.17731
      H1    15.21992   -0.89312  -16.60609
       H    19.40600    2.07639  -15.42614
       O    18.92827    2.85509  -15.77920
      H1    18.00310    2.60434  -16.00576
       H    19.45314    4.32639  -14.49651
       O    19.16711    5.04304  -13.93383
      H1    18.71299    5.65780  -14.46777
       H    13.46517   -6.70175  -19.26259
       O    13.87658   -5.92472  -18.90721
      H1    14.61526   -6.37303  -18.33133
       H    16.07669    0.28872  -12.95779
       O    16.42374    0.32010  -13.87120
      H1    17.25541    0.80481  -13.70687
       H    15.81147    2.99332  -14.49285
       O    15.27288    3.29968  -13.81107
      H1    14.72262    2.56134  -13.47540
       H    19.33864   -0.39970  -16.87422
       O    19.02337    0.00774  -16.00466
      H1    19.89631    0.06307  -15.56649

