90
frame 3 | Written by MDAnalysis XYZWriter (release 2.4.3)
       H    -8.37850  -11.53136    8.14068
       O    -8.07607  -12.16004    8.85047
      H1    -8.57092  -11.85577    9.61503
       H   -10.39777  -10.43651   11.50074
       O   -10.20061  -10.72110   10.62969
      H1   -10.91950  -11.14799   10.21712
       H    -4.84893  -16.05308    9.47252
       O    -5.68460  -16.12145    9.92370
      H1    -6.26526  -16.16193    9.11944
       H   -14.02251  -18.06150    5.86059
       O   -13.74896  -17.77942    6.75449
      H1   -13.30011  -16.94502    6.68062
       H    -9.76932  -15.08634    3.21740
       O    -9.00887  -14.65419    3.65667
      H1    -8.60764  -14.25631    2.86806
       H    -6.83201  -13.34021   10.81673
       O    -6.87472  -14.15660   11.37638
      H1    -6.36878  -14.81685   10.79471
       H   -12.07749  -14.37353    6.56889
       O   -12.35521  -15.20105    7.03208
      H1   -13.25762  -14.96720    7.31587
       H    -9.60087  -19.69184   12.61654
       O    -9.42522  -18.72550   12.77677
      H1   -10.14327  -18.25334   12.22668
       H   -13.05553  -11.36035   10.83604
       O   -12.64727  -12.07074   11.32633
      H1   -13.09770  -12.88688   11.09125
       H   -15.70932  -14.35505    8.97821
       O   -15.10995  -15.01392    8.56900
      H1   -15.35694  -15.83333    8.91266
       H   -12.05975  -16.45105    3.85830
       O   -11.09094  -16.26193    3.82255
      H1   -10.71357  -16.75598    4.54883
       H   -10.43192  -15.48476    9.72358
       O   -10.72512  -16.30468    9.25451
      H1   -11.34138  -15.87054    8.63378
       H    -7.25143  -13.47364    7.66740
       O    -6.62273  -14.17733    7.38824
      H1    -7.24350  -14.92125    7.27279
       H   -15.64934  -18.86449    9.15517
       O   -15.78725  -17.90459    8.92963
      H1   -15.14838  -17.86204    8.24692
       H   -11.27612  -17.43646   10.65609
       O   -11.49959  -17.78253   11.55063
      H1   -11.69366  -16.99950   12.07337
       H    -8.92463  -16.05503   13.45651
       O    -9.48260  -15.24057   13.66810
      H1    -9.52332  -14.78641   12.81837
       H   -14.09964  -17.84910   11.03070
       O   -14.45470  -17.12922   11.58356
      H1   -15.29787  -16.93285   11.16495
       H   -11.99982  -13.72844   13.74624
       O   -11.57144  -12.90098   13.90620
      H1   -12.06407  -12.27331   13.41022
       H   -13.30249  -15.29222   11.04295
       O   -13.44185  -14.47768   10.54215
      H1   -14.00293  -14.91826    9.89909
       H    -7.82535  -17.93963    8.44070
       O    -7.76379  -18.93175    8.33741
      H1    -7.19248  -19.14163    9.10699
       H   -12.51984  -16.44740   13.94577
       O   -12.14848  -15.80082   13.36813
      H1   -11.23986  -15.74280   13.78793
       H   -14.27203  -15.45426    3.40657
       O   -14.42525  -15.80882    4.35678
      H1   -14.59724  -15.02798    4.87717
       H    -9.07610  -16.18613    8.26751
       O    -8.28589  -16.37586    7.68303
      H1    -8.76504  -16.82261    6.96722
       H   -12.34756  -12.05908    6.07739
       O   -12.50962  -12.81278    5.47502
      H1   -11.90243  -12.54443    4.70461
       H    -8.50708  -12.64049    5.87102
       O    -9.30373  -12.87067    5.38872
      H1    -9.11814  -13.77010    5.04523
       H   -15.23683  -13.46370    6.22644
       O   -15.99537  -13.73102    5.71806
      H1   -15.99987  -12.96206    5.14653
       H   -15.11318  -14.96589   12.90233
       O   -14.66508  -14.06057   13.05177
      H1   -14.16690  -13.95698   12.20593
       H   -11.12182  -13.73480   11.11464
       O   -10.29308  -14.23387   10.93784
      H1    -9.62504  -13.55707   10.90752
       H   -13.21950  -10.57736    7.27868
       O   -12.34574  -10.92824    7.37664
      H1   -11.80513  -10.41167    7.99976
       H    -9.21869  -18.91292    5.14381
       O    -9.66832  -18.21860    5.60447
      H1   -10.41605  -18.60176    6.15063

