90
frame 3 | Written by MDAnalysis XYZWriter (release 2.4.3)
       H    -1.03980    1.49666   14.06053
       O    -1.35277    2.34032   14.43826
      H1    -1.39386    2.84417   13.62204
       H    -4.46537    6.70991   10.31322
       O    -3.71882    6.14116   10.06543
      H1    -3.60626    6.46206    9.14716
       H     4.69040    9.04607   15.15063
       O     3.78180    8.80262   14.95883
      H1     3.78330    7.90044   14.52303
       H    -2.10841    5.76503   18.48786
       O    -2.14517    5.27932   17.65314
      H1    -1.47736    4.52694   17.83438
       H     0.03448   11.41922   12.00336
       O    -0.25906   11.41075   11.09285
      H1     0.34126   10.84622   10.62921
       H    -3.15553   11.43472   12.29017
       O    -2.94712   11.99411   13.02761
      H1    -3.04680   12.94773   12.73099
       H     2.31305   10.42632   12.69397
       O     3.13140   10.80622   13.06500
      H1     3.32926   10.11358   13.70455
       H     3.88336    8.27920    9.95860
       O     4.02356    8.63693   10.83972
      H1     4.21942    7.75522   11.22220
       H    -1.37416    4.32199   10.55333
       O    -1.52499    3.63386    9.88363
      H1    -2.30982    3.99667    9.40992
       H     1.36998    3.45416    7.96337
       O     1.82076    3.19267    8.83737
      H1     1.78025    3.98571    9.32450
       H     4.55386    5.55824   12.29328
       O     4.16516    6.39144   12.59978
      H1     3.30584    6.17918   12.18648
       H     1.55186    5.66355   11.44864
       O     2.18724    4.89481   11.25426
      H1     1.78634    4.21259   11.80556
       H     4.66870    4.82889   14.64455
       O     4.04416    4.91573   15.42573
      H1     4.73363    5.17166   16.04930
       H     0.42422    6.94818   16.38133
       O     0.15189    7.13292   15.51447
      H1    -0.80372    6.88456   15.46528
       H     1.08694   10.20706   15.17240
       O     0.22061    9.87257   14.86863
      H1     0.41899    8.96256   14.77700
       H     0.71244    4.13873   15.48805
       O     1.59744    3.80756   15.35092
      H1     2.23806    4.49781   15.29810
       H    -2.01776    6.45999   10.15702
       O    -1.09965    6.61111   10.52983
      H1    -0.64512    6.38788    9.69174
       H     0.46366    7.77740   18.25249
       O     1.13972    7.12124   17.93082
      H1     1.38769    6.80235   18.80177
       H     2.13680    8.50014   17.31286
       O     2.49708    9.39120   17.26832
      H1     3.11180    9.11393   16.50553
       H    -3.72612    5.23484   13.69418
       O    -3.83505    4.74224   12.84165
      H1    -4.33213    5.42215   12.32814
       H    -0.08953    1.97283   12.01063
       O    -0.44173    1.45955   11.26532
      H1    -0.82492    2.11323   10.70978
       H     0.78864    7.32483    7.53060
       O     0.52412    6.72452    8.22225
      H1    -0.41569    7.08339    8.09719
       H    -0.32754    9.11960   17.39978
       O    -0.55481    9.19443   18.36905
      H1    -1.51083    9.09892   18.42068
       H    -2.54245    6.10572   16.01537
       O    -2.64256    6.30196   15.08383
      H1    -2.92258    7.24801   15.18040
       H    -1.99367    5.08710   12.79315
       O    -1.03275    4.99955   12.55356
      H1    -0.99813    5.59191   11.75690
       H     0.47498    7.76789   11.61032
       O     0.95231    7.52393   12.41371
      H1     0.20573    7.10522   12.92574
       H    -2.29220   11.72036   14.91280
       O    -2.11525   11.48914   15.79530
      H1    -1.27222   11.04494   15.81565
       H    -2.78879    9.64082   15.56330
       O    -3.37977    8.89718   15.66370
      H1    -4.31399    9.36679   15.68966
       H     2.17941    2.41118   12.87629
       O     1.26516    2.76347   12.88004
      H1     1.27623    3.22365   13.76010
       H     2.15740    8.89573   10.74166
       O     1.43444    9.38262   10.23577
      H1     1.75268    9.37000    9.33574

