90
frame 2 | Written by MDAnalysis XYZWriter (release 2.4.3)
       H   -12.30570    4.38453  -11.28707
       O   -12.75223    3.67020  -11.83690
      H1   -13.61875    4.05255  -12.12180
       H   -10.25672    7.37222  -11.90123
       O    -9.40294    7.21616  -12.44391
      H1    -9.73134    7.04436  -13.35582
       H    -6.26802    2.22942  -17.95029
       O    -6.96587    2.23517  -17.21436
      H1    -7.17787    1.30389  -17.11068
       H    -7.85802    0.65116   -9.33289
       O    -8.32493   -0.17271   -9.57847
      H1    -8.89817   -0.30107   -8.81950
       H    -6.25807   -2.21803   -9.98441
       O    -6.92451   -2.28193  -10.71261
      H1    -7.55551   -1.62282  -10.43180
       H    -3.22123    4.07130  -12.46419
       O    -3.92945    3.82807  -13.12475
      H1    -4.40015    3.21523  -12.56201
       H    -4.93576    1.55996  -14.67442
       O    -5.91147    1.47914  -14.72870
      H1    -6.05539    1.83955  -15.64864
       H    -6.60360    5.81030  -15.31336
       O    -7.07691    6.48042  -14.77713
      H1    -7.19273    5.94977  -13.93789
       H    -5.44129   -1.53517  -14.28670
       O    -5.46527   -1.04428  -15.13892
      H1    -5.67217   -0.16122  -14.74969
       H    -6.77480    5.83449   -9.02474
       O    -7.26009    6.63949   -9.30497
      H1    -7.66490    6.86009   -8.46368
       H    -9.29078    0.73840  -10.84573
       O    -9.80308    1.40337  -11.33098
      H1   -10.65235    1.06330  -11.06253
       H    -8.57430   -2.32014  -13.65930
       O    -8.22067   -1.58281  -13.21904
      H1    -7.49304   -1.96447  -12.73180
       H    -7.42591    4.42472  -12.36061
       O    -7.00697    5.28559  -12.42902
      H1    -7.63770    5.87012  -12.02775
       H   -12.56840   -1.91913  -13.43906
       O   -12.63663   -0.97668  -13.45549
      H1   -11.69069   -0.69785  -13.56723
       H    -3.06999    1.42454  -15.70127
       O    -3.24022    1.44341  -14.71138
      H1    -3.03686    2.40320  -14.46306
       H    -3.87660    6.87917  -12.85807
       O    -3.80325    7.02270  -11.86929
      H1    -4.60562    7.52316  -11.67808
       H    -5.31408    4.24839   -6.94627
       O    -6.04041    4.45294   -7.53152
      H1    -5.64889    4.22310   -8.37171
       H    -3.95091   -1.61491  -11.68409
       O    -3.64861   -0.80930  -11.19931
      H1    -4.21407   -0.05152  -11.35371
       H    -8.27311    2.16553  -12.02559
       O    -7.45880    2.62038  -12.34011
      H1    -7.12635    2.00512  -13.03746
       H   -10.45751    2.95995   -8.96000
       O    -9.79137    3.49187   -9.45940
      H1    -9.81133    2.93636  -10.27297
       H   -10.96698    5.02873  -16.14976
       O   -10.94989    5.35730  -15.23510
      H1   -10.71447    4.54283  -14.79105
       H    -5.51948    4.67976  -10.94877
       O    -5.12570    4.44336  -10.08773
      H1    -4.27292    4.86441  -10.28789
       H    -9.42792   -0.52140  -13.42655
       O   -10.16616    0.06783  -13.64711
      H1    -9.86608    0.88262  -13.24849
       H   -11.02860    5.03951   -9.47562
       O   -11.95499    5.33732   -9.60332
      H1   -11.76755    6.23662   -9.87904
       H    -7.89760    3.66511  -17.69947
       O    -7.99891    4.46838  -18.21780
      H1    -8.85049    4.82763  -18.02031
       H    -6.95895    2.94722   -8.37693
       O    -7.32619    2.27625   -8.96113
      H1    -8.24783    2.55973   -9.06831
       H    -8.94115    0.19008  -15.24720
       O    -8.80320   -0.00393  -16.17913
      H1    -7.94266   -0.49351  -16.22309
       H   -11.32178    2.89783  -14.33643
       O   -10.42824    3.07021  -14.02511
      H1   -10.49338    2.99442  -13.08587
       H    -4.80394    2.09500  -10.51557
       O    -4.87932    1.64056  -11.32658
      H1    -5.80472    1.79090  -11.57799
       H    -3.78340    4.89962  -14.69627
       O    -3.48228    5.56854  -15.36244
      H1    -2.51549    5.53264  -15.34741

