90
frame 0 | Written by MDAnalysis XYZWriter (release 2.4.3)
       H    -5.44673    4.76368   16.23352
       O    -5.71787    5.12492   17.12295
      H1    -5.08919    5.87839   17.11448
       H    -2.82794    4.86554   18.10749
       O    -2.65998    4.82976   17.13634
      H1    -1.97139    4.11651   17.05285
       H    -8.05661   15.53127   17.65742
       O    -8.94824   15.69702   17.79443
      H1    -9.41126   15.48500   16.99336
       H    -8.13840   14.66698   14.54231
       O    -9.05107   14.72161   14.25460
      H1    -8.96071   13.97803   13.65150
       H    -3.11791    7.41884   18.54011
       O    -2.81237    7.23270   19.42734
      H1    -3.20286    6.33917   19.39099
       H    -6.41143   15.41590   14.09642
       O    -6.40940   14.83412   14.92682
      H1    -5.51170   15.12091   15.33766
       H    -1.03596   15.14646   15.95428
       O    -0.09958   15.20004   15.77383
      H1    -0.15717   14.65532   14.94102
       H    -5.99855   10.38935   17.38101
       O    -6.20681    9.61500   16.80971
      H1    -6.48976   10.05792   15.95002
       H    -6.24243    7.07972   13.90057
       O    -6.00398    7.64727   14.64340
      H1    -6.69055    7.52130   15.32790
       H    -8.87293   10.29126   17.23600
       O    -8.70221    9.42478   17.63047
      H1    -7.70921    9.39326   17.65570
       H    -5.86025   16.21872   18.42757
       O    -6.00430   15.91857   17.54232
      H1    -6.45154   16.68808   17.10455
       H    -7.08270   12.83062   15.63377
       O    -7.52249   11.95315   15.46043
      H1    -7.92776   12.20328   14.58137
       H    -5.49295   11.17928   19.53007
       O    -5.93966   11.60172   18.85354
      H1    -6.79874   11.74238   19.30891
       H   -10.40044    7.16900   18.79242
       O   -10.27314    7.92888   19.35595
      H1    -9.60892    8.41278   18.76630
       H    -2.21256   13.82632   18.42768
       O    -1.49739   14.00843   17.82187
      H1    -0.83791   13.23798   17.86545
       H    -0.96277    6.99026   18.39952
       O    -0.23902    6.80647   17.83232
      H1     0.25803    6.09863   18.24488
       H    -3.26931   15.36073   15.88331
       O    -3.71866   15.76478   15.15253
      H1    -3.59307   16.70676   15.44495
       H    -3.60893   12.45747   11.53490
       O    -4.13620   11.86920   12.08113
      H1    -4.18597   12.21958   13.01425
       H    -4.07164   12.77621   15.86822
       O    -3.76947   12.20244   15.09360
      H1    -3.44124   11.36788   15.40857
       H    -7.77527    5.75669   19.02795
       O    -8.11650    5.27083   18.24535
      H1    -7.35823    5.02190   17.68523
       H    -5.00205   14.35128   17.43063
       O    -4.27390   13.66252   17.35319
      H1    -4.63255   12.93149   17.87486
       H    -0.67187    9.47007   17.91737
       O    -0.52981    9.51518   18.86578
      H1    -0.10396    8.64317   19.00866
       H    -2.86222    5.70767   15.45916
       O    -3.15746    6.26353   14.69781
      H1    -3.87737    6.81265   15.15951
       H     1.32833   12.95335   18.23295
       O     0.82577   12.74014   17.40199
      H1     0.66128   13.63473   16.97927
       H   -10.02708    8.91915   16.12257
       O   -10.91833    9.09099   15.77032
      H1   -11.54137    9.17630   16.56465
       H    -2.36484    9.54762   14.34783
       O    -2.22803    9.58828   15.32047
      H1    -1.31402    9.73759   15.37554
       H    -3.17727    8.55162   16.55331
       O    -3.93621    8.08225   17.00539
      H1    -4.75046    8.69452   16.91007
       H    -1.94365   17.28020   18.55912
       O    -2.43779   16.60580   18.06312
      H1    -2.01195   15.74214   18.11495
       H    -8.56392    6.49673   17.02394
       O    -8.69772    7.14701   16.28566
      H1    -8.68586    7.96882   16.78845
       H    -9.78406   14.74245   18.99599
       O   -10.31344   14.36669   19.66945
      H1   -11.21739   14.57444   19.45011

