90
frame 3 | Written by MDAnalysis XYZWriter (release 2.4.3)
       H     7.88790    1.37242   -3.23024
       O     7.12937    1.96386   -3.07407
      H1     6.45893    1.36712   -3.48208
       H     6.60218    3.69128   -5.52527
       O     6.99184    4.04886   -4.69477
      H1     7.04127    3.20643   -4.18861
       H     5.96616    1.27033    2.47751
       O     6.92689    1.18339    2.55196
      H1     7.04146    0.73946    3.37975
       H    14.74705    2.65380   -1.43265
       O    14.87414    2.17971   -0.56024
      H1    15.77806    1.77832   -0.59980
       H    13.60679    2.14545   -6.39301
       O    13.07137    1.32440   -6.55476
      H1    13.45530    1.15642   -7.42115
       H    15.80882    0.28866   -3.21190
       O    15.24103   -0.46912   -3.17212
      H1    14.50091    0.01772   -3.55606
       H    13.96117    4.92564   -1.53172
       O    13.75048    4.23179   -2.18293
      H1    12.78078    4.32193   -2.08235
       H     8.79819    4.45080   -4.86954
       O     9.72491    4.37201   -4.54266
      H1    10.15831    4.02918   -5.32971
       H    14.74419    4.33186   -5.21742
       O    14.50482    3.39761   -5.07071
      H1    13.90378    3.55385   -4.34444
       H    10.78668    7.18743   -4.64762
       O     9.84674    7.12837   -4.53707
      H1     9.74638    6.15451   -4.54265
       H    12.90995   -1.66512   -1.89013
       O    13.56141   -1.43556   -1.25172
      H1    14.27411   -1.10029   -1.82941
       H    12.63126    0.26302   -0.31521
       O    12.31847    0.82398    0.42415
      H1    12.94408    1.52404    0.34376
       H     6.29411    1.05376   -0.60207
       O     5.85600    1.87997   -0.75826
      H1     6.34269    2.08759   -1.63075
       H     9.40676    4.99987    0.02836
       O    10.21744    5.49483    0.00828
      H1    10.84795    5.01167    0.56117
       H    10.04723    2.35988   -2.01519
       O    10.87208    2.57016   -2.41025
      H1    10.52375    3.12659   -3.15104
       H    10.13641    1.12498    0.10427
       O     9.29170    1.26292   -0.33588
      H1     9.00628    2.13603   -0.04964
       H     6.83230    7.81398    0.20646
       O     6.77915    7.01284   -0.35981
      H1     7.66637    6.67851   -0.24822
       H     9.65928   -0.63061    0.84938
       O    10.14379   -1.40070    1.16864
      H1    10.85850   -0.99536    1.74725
       H    10.78154    1.92783   -6.14152
       O     9.97729    1.60143   -5.73461
      H1     9.79066    0.80631   -6.32490
       H     8.98941   -4.26091   -1.28226
       O     8.51973   -3.44842   -1.55075
      H1     9.34502   -2.88373   -1.52062
       H     7.47337    3.60028    0.99510
       O     8.01741    3.75208    0.17675
      H1     7.26900    3.56847   -0.45070
       H    10.06820   -1.31742   -3.17797
       O    10.59272   -1.91974   -2.58603
      H1    11.25116   -2.18284   -3.30015
       H     8.56180   -1.41970   -4.33203
       O     8.22742   -2.31964   -4.37550
      H1     8.34226   -2.64576   -3.47630
       H    12.75598   -1.46679   -4.51750
       O    12.30028   -2.33927   -4.54805
      H1    12.05437   -2.36103   -5.48192
       H    11.53450    3.56402    2.16519
       O    12.08303    4.09167    1.59585
      H1    12.67885    4.52832    2.19958
       H    12.71180    0.82794   -4.73996
       O    12.57797    0.35499   -3.92417
      H1    12.24111    1.04974   -3.32017
       H     8.81440    3.41740    3.37183
       O     9.40933    2.99677    2.74882
      H1     8.69925    2.38979    2.41428
       H     9.93376    0.26198   -2.73700
       O     9.28117    0.26584   -3.46080
      H1     9.80815    0.55291   -4.27124
       H     7.16971   -0.09102    1.04733
       O     7.16195   -0.33208    0.13298
      H1     7.97589    0.21001   -0.09712
       H    12.51690   -0.02512    1.92878
       O    12.31992   -0.77773    2.54214
      H1    12.99761   -1.48538    2.43797

