90
frame 3 | Written by MDAnalysis XYZWriter (release 2.4.3)
       H    -9.43890  -18.81567   14.56606
       O    -9.96208  -19.00487   15.39961
      H1    -9.24728  -19.42160   15.90107
       H   -11.93749  -16.20318   18.02428
       O   -11.88582  -16.39770   18.97312
      H1   -12.72834  -16.06661   19.26969
       H    -5.83967  -14.35945   12.65073
       O    -5.41934  -14.74533   13.48559
      H1    -6.02783  -15.44530   13.67482
       H   -13.42710  -13.28377   17.70281
       O   -13.09573  -13.61222   16.88418
      H1   -12.12332  -13.63373   17.04315
       H    -9.60087  -19.69184   12.61654
       O    -9.42522  -18.72550   12.77677
      H1   -10.14327  -18.25334   12.22668
       H   -15.01083  -18.75938   15.22122
       O   -14.45362  -18.98368   15.97419
      H1   -13.72314  -19.43736   15.50974
       H   -15.04117  -20.02845   13.07003
       O   -15.36473  -19.14000   13.32227
      H1   -14.86822  -18.52824   12.78143
       H   -10.43192  -15.48476    9.72358
       O   -10.72512  -16.30468    9.25451
      H1   -11.34138  -15.87054    8.63378
       H    -4.20579  -16.45233   16.47280
       O    -3.46796  -15.90275   16.20571
      H1    -3.96128  -15.17198   15.83796
       H   -11.27612  -17.43646   10.65609
       O   -11.49959  -17.78253   11.55063
      H1   -11.69366  -16.99950   12.07337
       H    -8.92463  -16.05503   13.45651
       O    -9.48260  -15.24057   13.66810
      H1    -9.52332  -14.78641   12.81837
       H   -14.09964  -17.84910   11.03070
       O   -14.45470  -17.12922   11.58356
      H1   -15.29787  -16.93285   11.16495
       H   -11.99982  -13.72844   13.74624
       O   -11.57144  -12.90098   13.90620
      H1   -12.06407  -12.27331   13.41022
       H   -13.30249  -15.29222   11.04295
       O   -13.44185  -14.47768   10.54215
      H1   -14.00293  -14.91826    9.89909
       H    -7.82535  -17.93963    8.44070
       O    -7.76379  -18.93175    8.33741
      H1    -7.19248  -19.14163    9.10699
       H   -12.51984  -16.44740   13.94577
       O   -12.14848  -15.80082   13.36813
      H1   -11.23986  -15.74280   13.78793
       H   -10.04116  -13.15125   16.27210
       O   -10.49380  -13.27766   17.13548
      H1   -10.64845  -12.37857   17.49579
       H    -9.04550  -14.75041   19.35951
       O    -9.21829  -13.80717   19.45480
      H1    -9.51664  -13.57852   18.58817
       H    -5.08400  -17.97305   17.97846
       O    -5.70431  -18.29741   17.36875
      H1    -6.54975  -18.38389   17.89272
       H   -15.26317  -15.99698   18.09661
       O   -15.64647  -16.69263   17.53140
      H1   -14.96935  -16.91577   16.88235
       H    -6.14941  -19.32594   15.56989
       O    -5.76915  -19.63693   14.73230
      H1    -4.88084  -19.27816   14.85804
       H   -10.38088  -15.93040   15.69057
       O   -11.16611  -16.46517   15.91132
      H1   -10.97167  -17.39539   15.72519
       H   -10.04647  -11.95160   14.56456
       O    -9.09496  -11.88060   14.49831
      H1    -8.78467  -12.79671   14.22372
       H   -11.12182  -13.73480   11.11464
       O   -10.29308  -14.23387   10.93784
      H1    -9.62504  -13.55707   10.90752
       H    -6.84919  -17.69807   13.19700
       O    -6.88760  -17.21605   14.02443
      H1    -6.48033  -17.94171   14.58462
       H    -2.58250  -18.82114   15.58953
       O    -3.11811  -19.35214   14.97243
      H1    -2.96419  -18.89976   14.10774
       H    -5.67355  -19.19953   10.82377
       O    -5.90866  -18.42342   11.40727
      H1    -5.72770  -17.69245   10.84824
       H    -3.50024  -16.93416   12.82891
       O    -3.46401  -17.89961   12.49952
      H1    -4.44003  -18.04895   12.21398
       H    -6.83684  -15.67470   16.59988
       O    -6.35083  -15.08532   17.15514
      H1    -6.18775  -15.68739   17.93243
       H   -15.86791  -19.18410   19.88823
       O   -16.46899  -19.11078   19.16543
      H1   -15.94580  -18.51578   18.60647

