90
frame 3 | Written by MDAnalysis XYZWriter (release 2.4.3)
       H    11.43424  -12.02085   -3.96500
       O    10.95027  -12.59969   -4.52294
      H1    10.58327  -12.01477   -5.20944
       H    12.02168  -13.53658   -2.57948
       O    11.83906  -14.45199   -2.33310
      H1    12.00296  -14.88660   -3.21598
       H     6.92387  -17.26555  -10.73561
       O     7.81254  -17.72239  -10.84533
      H1     8.33155  -17.23909  -10.14232
       H     5.79162  -13.77736   -3.82835
       O     4.89447  -13.78736   -3.45887
      H1     4.62960  -12.93427   -3.97411
       H    11.24195  -17.20113   -3.97379
       O    12.06116  -16.91995   -3.48451
      H1    12.71311  -17.64441   -3.70817
       H     4.19474  -17.20466   -9.39073
       O     5.02550  -16.80416   -9.64024
      H1     4.60230  -16.05811  -10.13437
       H     4.88732  -19.52888   -6.89516
       O     5.10845  -18.68010   -7.28998
      H1     5.78577  -18.93121   -7.97231
       H     9.20555  -15.01895   -4.61415
       O    10.04476  -15.09636   -5.06032
      H1    10.41271  -14.18599   -4.85996
       H     8.12739  -14.91233   -7.33252
       O     9.05553  -15.23568   -7.52251
      H1     9.45377  -15.30718   -6.60031
       H     8.12836  -11.35143   -6.59380
       O     7.18991  -11.65073   -6.53425
      H1     6.78668  -10.93628   -7.05380
       H     3.76036  -12.93531   -9.14495
       O     4.13587  -12.94664   -8.29804
      H1     4.88841  -13.50639   -8.38867
       H     6.74688  -16.04097   -3.28271
       O     7.09915  -15.52611   -4.06685
      H1     6.46955  -15.89538   -4.70917
       H    11.32118  -15.78479  -10.68829
       O    11.37274  -15.39384  -11.56632
      H1    12.24540  -15.00993  -11.65274
       H     2.94913  -14.08598   -7.69684
       O     2.36849  -14.62825   -7.09516
      H1     1.68007  -14.01348   -6.82254
       H     6.54278  -14.72814  -11.96726
       O     6.46420  -15.11520  -12.90903
      H1     7.21392  -15.74174  -12.88782
       H    10.04637  -11.36763   -7.25291
       O     9.83401  -10.95406   -6.37481
      H1    10.04285   -9.97812   -6.42843
       H     8.69555  -18.31348   -3.02820
       O     8.78223  -18.91954   -2.29129
      H1     9.43410  -19.55854   -2.70735
       H     6.67986  -13.67484   -6.97712
       O     6.47389  -14.30079   -7.62782
      H1     6.06233  -14.98697   -7.14548
       H     8.59703  -20.11808   -6.73858
       O     8.03794  -19.37575   -6.35943
      H1     7.65594  -18.96598   -7.14617
       H    11.30728  -17.37861   -8.79937
       O    10.77783  -16.75214   -9.34039
      H1    10.32581  -16.38198   -8.60514
       H     3.84970  -12.55109   -5.78799
       O     3.94969  -11.66740   -5.36162
      H1     3.08447  -11.47175   -4.94500
       H    10.06358  -14.18731   -2.10009
       O     9.23875  -13.99120   -1.68403
      H1     8.65115  -14.68998   -1.90733
       H    10.31940  -19.74617   -4.89309
       O    10.09839  -18.79792   -4.82217
      H1     9.38694  -18.83456   -5.49386
       H    11.08060  -13.16788   -8.41165
       O    10.13220  -12.95562   -8.52156
      H1     9.75925  -13.76359   -8.05898
       H    13.18114  -12.67713   -7.97588
       O    12.90782  -13.63683   -7.83397
      H1    13.20356  -13.62069   -6.93176
       H     6.13643  -10.55394   -4.22000
       O     7.04768  -10.88013   -4.08742
      H1     7.07252  -11.18814   -5.04645
       H     4.89298  -17.28461   -6.25531
       O     5.11657  -16.36270   -5.97418
      H1     4.26213  -16.01899   -5.56131
       H     6.92834  -13.28821  -10.50514
       O     6.55928  -14.18304  -10.38407
      H1     6.55451  -14.27445   -9.45254
       H    10.08768  -12.94380  -10.35212
       O    10.05448  -13.10295  -11.26560
      H1    10.45030  -13.99860  -11.32064
       H     8.42885  -12.04725  -11.01124
       O     7.50451  -11.74447  -11.09069
      H1     7.54841  -10.98070  -10.52586

