90
frame 3 | Written by MDAnalysis XYZWriter (release 2.4.3)
       H    17.75361   -1.03331   10.58482
       O    17.71057   -0.13639   10.18743
      H1    18.64249   -0.03984    9.96405
       H    12.13933    2.68555    9.35367
       O    11.67321    3.43230    9.05156
      H1    12.42265    4.00622    8.81636
       H    14.51177    0.53903   13.20426
       O    14.96826   -0.26070   13.53251
      H1    15.74294    0.20391   13.92135
       H    16.42022    2.80334   10.75561
       O    16.47692    2.00273   11.34352
      H1    16.81210    1.33644   10.67930
       H    12.67341    0.99919   10.65489
       O    12.02037    0.66187   10.01978
      H1    11.78546   -0.20288   10.25181
       H    17.07518    8.19042    6.82583
       O    16.37835    7.95343    6.21645
      H1    16.31742    6.99944    6.37964
       H    13.12865    5.87581   12.53284
       O    13.95405    5.42836   12.40200
      H1    13.78946    4.68803   11.78921
       H    15.84951    0.60996    9.04648
       O    15.32637    1.27309    8.59999
      H1    15.89626    1.71739    7.99039
       H    14.68464    2.74880    9.33896
       O    14.72451    3.67734    9.41064
      H1    15.06570    3.97152    8.53414
       H    15.33982    5.73410   13.48130
       O    15.91142    6.24141   14.06853
      H1    16.32367    5.45596   14.43625
       H    19.11580   -1.66150   14.81073
       O    19.07694   -2.06487   13.90947
      H1    19.27983   -2.94413   14.26059
       H    18.38188   -0.87449    6.43211
       O    19.11360   -0.23381    6.34816
      H1    19.22891    0.03927    7.29072
       H    19.52843    6.31943   14.93522
       O    18.86247    6.97540   14.55898
      H1    18.05964    6.41149   14.51074
       H    18.13013    0.18932   11.88830
       O    18.67079    0.51198   12.58730
      H1    19.28522   -0.21993   12.72527
       H    17.97673    1.27221   16.21011
       O    18.01111    1.82748   17.01231
      H1    18.76511    1.46700   17.50176
       H    13.80684    2.55305   13.01245
       O    14.00008    2.01494   12.22807
      H1    14.94475    2.39464   12.04852
       H    17.72254    3.42987    6.90260
       O    17.57958    2.64197    6.39739
      H1    18.38068    2.21882    6.74928
       H    16.99262    1.92505   14.57625
       O    17.11032    0.97390   14.73705
      H1    17.51076    0.71087   13.86528
       H    18.37821    4.09950    3.30173
       O    18.50542    4.51601    4.21094
      H1    18.47873    3.73595    4.81758
       H    15.00536    5.08371    6.29742
       O    15.18125    5.40302    7.20814
      H1    14.28159    5.77963    7.41789
       H    15.79297   -0.74584    5.74758
       O    15.68742   -0.98836    6.68111
      H1    15.13269   -0.24294    6.95324
       H    19.26409    5.56492   11.73310
       O    18.37537    5.12953   11.73554
      H1    18.65673    4.36440   12.31165
       H    18.02781   -1.99515   12.42511
       O    17.58212   -2.29792   11.58212
      H1    16.62833   -2.16922   11.78082
       H    18.56072    7.20304    8.73388
       O    18.88774    7.96759    8.23829
      H1    19.27297    7.59232    7.41792
       H    18.36591    3.26350   13.78506
       O    19.29677    3.27933   13.47156
      H1    19.24177    2.85087   12.63993
       H    18.15788    4.26896    9.30914
       O    18.24325    3.32226    9.19335
      H1    18.80400    2.97105    9.93334
       H    17.27753    5.77681   10.06386
       O    17.39165    5.80521    9.12183
      H1    16.60042    5.49380    8.77573
       H    15.49913    3.48362   14.60790
       O    16.49257    3.52141   14.64869
      H1    16.65261    3.83405   15.56074
       H    14.55663    1.92153    4.33284
       O    15.52321    2.14598    4.15269
      H1    15.85163    2.33619    5.05418
       H    18.03347    8.75264   11.97582
       O    17.05273    8.52503   12.06859
      H1    16.88189    8.08120   12.91783

