90
frame 3 | Written by MDAnalysis XYZWriter (release 2.4.3)
       H     4.14719    6.46354  -12.75615
       O     4.41334    7.41053  -12.79531
      H1     3.63645    7.77029  -12.33788
       H     2.30771   10.89890  -12.56948
       O     3.03629   10.62531  -13.18225
      H1     3.75685   10.48470  -12.56965
       H    -3.32219   12.39539   -7.97559
       O    -2.74027   11.82465   -8.39500
      H1    -1.90670   12.18758   -8.01377
       H    -1.68610   16.09930  -14.79124
       O    -0.72154   15.95806  -14.88752
      H1    -0.51564   15.25698  -14.28572
       H    -3.20362    8.68066  -11.90001
       O    -2.50860    9.32917  -11.90096
      H1    -2.61025    9.81751  -11.02551
       H     0.45623    8.37382   -7.98914
       O     0.13360    8.13193   -7.08672
      H1     0.04698    8.98691   -6.67926
       H     0.67549    4.61346  -13.25122
       O     0.61248    4.84492  -12.27362
      H1     0.73463    3.98687  -11.85628
       H    -2.86921    7.69102  -15.07066
       O    -3.76589    8.16695  -14.86701
      H1    -4.35636    7.44429  -14.74301
       H     2.04160    8.69413   -9.13031
       O     1.21712    8.69751   -9.61345
      H1     1.40137    7.98122  -10.24214
       H     3.74059   11.18928  -16.79800
       O     3.07200   11.04907  -16.16502
      H1     2.31333   11.13571  -16.74980
       H     1.66920   12.59411  -14.39430
       O     1.09612   13.31305  -14.62370
      H1     1.25139   13.36186  -15.55021
       H     0.25588   10.37178  -12.12182
       O     0.74179   10.85586  -11.43487
      H1     0.93941   10.14373  -10.82330
       H     0.02655   12.58086   -8.21471
       O    -0.45430   12.63759   -7.35044
      H1    -0.54481   13.66337   -7.43563
       H     1.28195    8.32347  -15.48130
       O     2.12270    8.06267  -15.05797
      H1     2.64154    8.78886  -15.24758
       H     3.84327   11.34925  -10.63291
       O     4.26943   10.50693  -10.35614
      H1     5.10407   10.95444  -10.10620
       H    -4.63400    6.33336  -12.39422
       O    -4.30595    7.04871  -11.77528
      H1    -5.17419    7.54444  -11.59840
       H     0.63034   14.39030  -11.65265
       O     1.33672   14.62929  -12.22080
      H1     1.05555   14.07621  -12.99247
       H     4.31226    7.97601   -8.30373
       O     3.57266    8.62664   -8.35901
      H1     3.88164    9.39384   -8.86230
       H    -0.83023   10.35068  -14.43087
       O    -0.53675    9.66938  -13.75155
      H1    -1.23477    9.70518  -13.06605
       H     0.05869   12.43340  -10.70213
       O    -0.14889   13.27559  -10.15348
      H1    -1.05808   13.45138  -10.41340
       H    -3.42061    9.73652   -8.64508
       O    -4.03806    9.03200   -8.59579
      H1    -4.41831    8.96800   -9.51556
       H    -3.37338   11.02198  -12.75686
       O    -3.71646   11.13606  -13.66855
      H1    -3.80941   10.20793  -13.90376
       H    -1.48337    7.83102  -16.45286
       O    -1.13105    7.61298  -15.52630
      H1    -0.73352    8.42633  -15.17853
       H    -3.90989   12.50768  -11.05384
       O    -3.00619   12.06744  -11.00367
      H1    -2.96011   11.96646  -10.03126
       H     1.20811    9.79266  -17.94520
       O     0.52501   10.26818  -17.41863
      H1     0.29735   10.88324  -18.17004
       H    -2.09434    6.70407  -10.86660
       O    -1.76479    5.97239  -10.28346
      H1    -1.84442    6.35311   -9.35463
       H     1.41235    6.43113  -11.95120
       O     1.66102    7.33546  -11.83185
      H1     0.94347    7.78327  -12.34588
       H     2.83706   13.63207  -11.37482
       O     3.60416   13.10454  -11.19507
      H1     4.24811   13.82421  -11.21973
       H     0.82635    5.01567  -15.71573
       O     0.10630    4.99266  -15.04237
      H1    -0.15314    5.91403  -14.96847
       H     4.52713   12.02037  -13.75770
       O     5.42967   12.32715  -13.76511
      H1     5.88680   11.50273  -13.93066

