90
frame 3 | Written by MDAnalysis XYZWriter (release 2.4.3)
       H    14.49801   -9.14276  -13.58446
       O    14.36092   -9.40233  -14.48872
      H1    13.94865   -8.71170  -15.00429
       H    12.85066   -8.37607   -7.58188
       O    13.57876   -8.28394   -8.16337
      H1    14.32400   -7.84879   -7.65867
       H    18.23921   -6.74373  -15.54186
       O    18.05283   -5.88020  -15.97810
      H1    18.92085   -5.70190  -16.37777
       H    12.93814  -10.84763   -9.29469
       O    13.51481  -11.04382   -8.52585
      H1    13.67142  -10.14567   -8.11698
       H    17.75149   -5.50387  -14.12619
       O    17.90972   -5.21754  -13.24397
      H1    17.85190   -4.23731  -13.25305
       H    11.86824   -2.58319  -14.87137
       O    11.58895   -3.30778  -14.30863
      H1    11.71411   -4.00118  -14.96033
       H    14.25495   -4.39849  -10.25579
       O    13.69764   -3.59990  -10.41719
      H1    12.80243   -3.94405  -10.41301
       H    16.25007   -1.06984  -10.53142
       O    17.16799   -1.48840  -10.38035
      H1    16.94009   -2.22529   -9.82105
       H    15.77502   -6.58175   -7.32058
       O    15.53930   -7.00151   -6.48038
      H1    14.79559   -6.33767   -6.25431
       H    10.89605   -9.53721  -10.54087
       O    11.47950  -10.28723  -10.62421
      H1    11.13510  -10.85096  -11.35386
       H    13.96632   -3.03919  -12.00442
       O    13.97542   -2.52378  -12.83381
      H1    13.18811   -2.93046  -13.31622
       H    17.81554   -9.97898  -13.55636
       O    18.46594  -10.66517  -13.60490
      H1    18.47676  -11.08545  -12.69407
       H    11.98818   -7.85779  -17.27010
       O    12.28914   -8.02875  -16.33235
      H1    11.99874   -8.99374  -16.33226
       H    11.03485   -6.65078  -15.50770
       O    10.07370   -6.51442  -15.45914
      H1     9.89439   -6.12591  -14.59799
       H    15.42410   -5.75250   -9.69110
       O    15.74536   -5.21528   -8.99315
      H1    16.71705   -5.23922   -9.09965
       H    18.30932   -3.93294   -8.26892
       O    18.17524   -4.11150   -9.20476
      H1    18.90537   -3.62675   -9.67688
       H    18.79268   -7.24486   -8.99432
       O    18.40369   -7.44104   -9.91839
      H1    18.79785   -6.90653  -10.57301
       H    17.30055   -2.07848  -12.10980
       O    17.09424   -2.56545  -12.91422
      H1    16.14607   -2.53978  -12.98663
       H    14.77068   -2.60534   -7.74972
       O    15.79578   -2.51315   -7.84391
      H1    15.84547   -3.38843   -8.30640
       H    10.37884   -6.58315   -9.03564
       O     9.45388   -6.69005   -8.74050
      H1     9.21444   -5.80156   -8.44928
       H    10.37590   -4.01962  -10.54619
       O    10.88410   -4.79886  -10.27382
      H1    10.79015   -5.33401  -11.04410
       H    14.98266   -5.54984  -13.91535
       O    15.40724   -6.03523  -13.15626
      H1    16.27556   -5.59473  -13.20623
       H    14.05889   -5.08194  -16.13100
       O    14.86177   -4.87500  -15.60655
      H1    15.41833   -5.63718  -15.81751
       H     9.32786   -5.94047  -12.22097
       O    10.24123   -5.90326  -12.63023
      H1    10.58014   -6.81740  -12.62475
       H    17.43857  -10.31730   -9.06587
       O    16.94118   -9.59968   -9.55048
      H1    17.61462   -8.87174   -9.54257
       H    12.94758   -4.40303   -7.52566
       O    12.83259   -3.44879   -7.70731
      H1    12.92708   -3.34895   -8.67966
       H    17.42121   -7.83031  -13.58802
       O    17.63285   -8.13793  -14.50877
      H1    18.56829   -8.38723  -14.28039
       H    15.31228   -9.63701  -10.72351
       O    14.63461   -9.42377  -11.38579
      H1    13.89988   -9.90880  -10.94236
       H    14.53652   -6.47004  -11.83754
       O    14.19983   -6.52624  -10.89674
      H1    14.42772   -7.37841  -10.49182
       H    12.56457   -7.36290  -11.72651
       O    12.01886   -7.93811  -12.31886
      H1    12.29125   -8.80764  -11.93530

