90
frame 2 | Written by MDAnalysis XYZWriter (release 2.4.3)
       H    -1.22947    1.32171   14.13006
       O    -1.54843    2.16297   14.45288
      H1    -1.03526    2.81933   13.99045
       H    -4.93435    5.13213   16.56645
       O    -4.89862    5.32223   17.51751
      H1    -4.07646    4.88912   17.85362
       H    -1.85572    5.11153   18.67916
       O    -1.89127    5.10425   17.72808
      H1    -1.33025    4.35912   17.47908
       H     0.38012    3.60146   16.25718
       O    -0.34295    3.18414   16.73926
      H1    -0.66589    2.65331   15.96526
       H    -3.34156    8.01381   18.22009
       O    -3.03838    7.97860   19.12471
      H1    -3.08819    7.02679   19.39627
       H    -1.94783    0.22231   16.50224
       O    -1.36234   -0.43781   16.90301
      H1    -0.97130   -0.00935   17.68721
       H    -3.87634    2.95465   13.20296
       O    -4.56621    2.27858   13.55415
      H1    -4.03937    1.50187   13.74568
       H    -4.03720   11.79515   18.48788
       O    -3.24878   11.30218   18.71551
      H1    -3.18491   10.68829   17.94926
       H     0.26549    7.12449   15.79511
       O     0.04724    7.23437   14.88729
      H1    -0.93456    6.97760   14.84987
       H     1.01362    9.70567   15.55510
       O     0.34727    9.89353   14.90348
      H1     0.06218    8.98443   14.70208
       H     0.84403    5.40929   15.27449
       O     1.44607    4.66993   15.34917
      H1     2.25450    5.06800   15.72076
       H    -0.12448    5.79232   17.72414
       O     0.59547    6.42696   17.67648
      H1     1.19312    6.00898   18.30438
       H     2.04566    8.17536   17.50280
       O     2.18105    8.85102   16.76063
      H1     3.00804    8.53036   16.37407
       H     1.74773    1.18925   18.88839
       O     0.83413    1.00311   18.54208
      H1     0.52631    1.91150   18.26637
       H     2.80126    2.46416   17.54476
       O     3.29197    2.15053   16.77720
      H1     3.44436    2.98446   16.27041
       H    -5.33478    4.08577   14.39680
       O    -5.85364    4.38159   15.15742
      H1    -6.64058    3.88819   15.06115
       H    -7.40227    4.47752   19.03354
       O    -7.34179    4.40711   18.07314
      H1    -6.43982    4.65942   17.90320
       H    -3.41584    5.62713   14.04999
       O    -3.62639    5.01882   13.30441
      H1    -4.49310    5.34944   13.06138
       H    -3.85069    0.17796   15.56510
       O    -3.65160    0.92482   16.16657
      H1    -4.01977    1.64281   15.66503
       H     0.28459   10.41624   17.82216
       O     0.08462    9.87304   18.61171
      H1    -0.08358    9.07796   18.17243
       H    -2.17876    6.13462   16.17716
       O    -2.40772    6.45945   15.26032
      H1    -2.76381    7.33999   15.45094
       H    -7.56423    1.17798   18.68916
       O    -6.94005    1.65781   18.12575
      H1    -7.29037    2.59206   18.05700
       H    -2.27681    5.01342   12.16453
       O    -1.64875    4.80910   11.41418
      H1    -1.38979    5.68616   11.15571
       H     0.64182    7.52057   11.51359
       O     1.36203    7.65052   12.19270
      H1     0.97844    7.37786   12.99096
       H    -2.38648   11.24771   14.59701
       O    -2.14322   11.09750   15.51033
      H1    -1.16958   10.73914   15.41616
       H    -3.37276    9.36141   16.04377
       O    -3.78162    8.70626   16.61831
      H1    -4.71829    8.69371   16.44244
       H     2.31152    2.18590   13.48774
       O     1.66343    2.91453   13.23634
      H1     1.81379    3.52937   13.95370
       H     2.33889    3.23295   19.47829
       O     1.83727    3.96505   19.05628
      H1     2.48788    4.68612   19.34219
       H    -8.00798    6.06450   17.02439
       O    -8.35971    6.66308   16.31458
      H1    -8.14008    7.59055   16.61261
       H    -4.90860    3.89851   19.61040
       O    -5.15014    2.99178   19.89520
      H1    -5.63005    2.67226   19.10766

