90
frame 6 | Written by MDAnalysis XYZWriter (release 2.4.3)
       H    13.77583    4.89482    2.22049
       O    13.88033    4.24823    1.49769
      H1    14.21905    3.49117    2.00256
       H    13.35962    9.27334    2.54354
       O    13.25578    8.49340    1.99515
      H1    13.63838    8.77456    1.12012
       H    14.46958    3.03447   -6.12564
       O    14.59241    3.12532   -5.14385
      H1    14.05222    3.92620   -4.98439
       H    11.18030    7.99754   -3.19323
       O    11.49039    8.31675   -2.35615
      H1    10.82820    8.01368   -1.71340
       H    10.97225    3.93499   -1.94668
       O    11.47976    4.73662   -2.05610
      H1    12.41298    4.62082   -1.82405
       H    16.65028    7.01983   -5.49399
       O    16.81152    6.77169   -4.56553
      H1    16.67998    5.80035   -4.51360
       H    12.85159    3.82295    4.34076
       O    12.38898    4.64638    4.66901
      H1    11.54599    4.73452    4.23668
       H    18.25736    2.88554    1.34792
       O    18.02686    3.34139    0.51971
      H1    18.76349    3.17371   -0.06497
       H    14.54371    0.20036    0.44122
       O    14.39903    0.71051   -0.37103
      H1    14.95963    1.48498   -0.30014
       H    15.96379    2.63430    3.33131
       O    16.56692    2.05714    2.86369
      H1    16.10713    1.28105    2.51919
       H    10.89574    6.36703    1.62496
       O    11.02583    5.45776    1.39496
      H1    11.58325    5.46877    0.62909
       H    16.03825    6.92712    6.32317
       O    16.16215    7.11607    5.34598
      H1    15.38948    6.76593    4.83902
       H     8.54539    7.55074   -1.51126
       O     9.28119    7.29572   -0.96121
      H1     8.91284    6.59934   -0.36810
       H    10.70590    1.61129   -1.94423
       O    10.15628    2.38935   -1.90261
      H1     9.44843    2.13255   -2.46506
       H    12.96203    0.61276   -1.51865
       O    12.10127    0.43348   -1.90053
      H1    11.74664   -0.37180   -1.42918
       H    12.25906    2.04458    1.05674
       O    11.58541    2.31309    1.67390
      H1    11.75040    3.24680    1.82662
       H    13.95208    6.97324    3.03922
       O    14.21869    6.15158    3.42882
      H1    13.57594    6.05898    4.15021
       H    16.72446    3.28810   -0.57999
       O    15.94558    2.99427   -1.09341
      H1    16.11440    3.25995   -2.00507
       H    17.03563    5.31656   -2.34166
       O    17.52913    5.96752   -1.85167
      H1    17.55389    6.80018   -2.39766
       H    12.47288    5.34118   -3.68487
       O    13.17130    5.41756   -4.36417
      H1    13.68052    6.25421   -4.28430
       H    15.98761    3.80930   -4.29642
       O    16.58936    4.07160   -3.59370
      H1    17.39754    3.99045   -4.04970
       H    16.92179    4.66897    1.79933
       O    16.92904    5.30463    2.49293
      H1    17.58926    5.18555    3.16224
       H    10.33831    8.76906    1.92302
       O    10.63283    7.96160    2.37912
      H1    11.59424    8.12019    2.27876
       H    15.29333    8.10071   -0.36272
       O    14.36037    8.13146   -0.51322
      H1    14.05309    7.38407   -1.01134
       H    13.32804   10.49511   -2.62956
       O    14.26706   10.24031   -2.50523
      H1    14.14938    9.52202   -1.81758
       H    15.32961    7.56930   -4.22027
       O    14.41618    7.99320   -4.31609
      H1    14.30323    8.70384   -3.70870
       H    14.83695    4.49396   -1.12386
       O    14.12487    5.15111   -1.21920
      H1    13.87836    5.13694   -0.27220
       H     8.10505    4.81518    0.27167
       O     8.36898    5.56430    0.82131
      H1     9.22316    5.36252    1.21838
       H    17.30843    6.82676    1.10407
       O    17.28746    7.48847    0.45392
      H1    17.26981    6.85824   -0.34977
       H     8.94664    1.94569   -0.25623
       O     8.86910    1.71274    0.67400
      H1     9.69727    2.00764    0.99605

