90
frame 2 | Written by MDAnalysis XYZWriter (release 2.4.3)
       H     3.41789  -10.85136   16.92293
       O     3.65820   -9.96820   17.18678
      H1     3.38912   -9.98880   18.09333
       H    12.32715  -16.24041   16.04121
       O    11.96318  -16.12005   16.95195
      H1    11.20229  -15.64843   16.75450
       H     9.62433  -15.08234   15.83259
       O     9.11709  -15.17519   16.64150
      H1     9.47682  -14.42134   17.10445
       H    11.68862  -12.58014   18.88519
       O    11.37932  -11.73074   19.16992
      H1    12.15318  -11.49320   19.75720
       H     7.20593   -8.85280   18.61627
       O     6.30596   -8.96048   18.92483
      H1     5.87015   -9.62797   18.39519
       H     5.59046  -11.62628   12.47275
       O     6.23060  -11.59990   11.68059
      H1     5.97757  -12.48216   11.27624
       H     6.14772   -6.38723   16.64989
       O     6.89206   -6.41873   15.97912
      H1     7.03288   -7.38838   16.07262
       H     8.23527   -6.08460   16.89636
       O     9.03929   -5.74220   17.28410
      H1     9.01104   -6.36465   18.04787
       H    12.84806  -13.36792   15.32088
       O    13.73695  -13.25720   15.69218
      H1    13.56049  -13.21403   16.61312
       H     9.40694   -8.63825   18.41980
       O     8.92742   -8.18620   19.15552
      H1     9.00588   -8.84435   19.90644
       H    10.68331  -13.53119   14.36008
       O    11.18674  -14.20452   14.76555
      H1    11.31030  -14.78621   13.99630
       H     8.80859  -11.32859   15.15932
       O     8.85080  -12.27393   14.99987
      H1     8.20522  -12.56231   15.66239
       H     2.96336  -13.15576   18.04429
       O     2.55080  -13.01964   17.18300
      H1     1.59161  -12.94562   17.40565
       H     5.15047  -18.06571   17.61913
       O     5.64395  -17.56697   17.02147
      H1     5.09889  -16.78052   16.89891
       H     5.56480   -8.28153   15.20001
       O     5.76977   -9.06611   15.72738
      H1     5.05702   -9.07476   16.34693
       H     5.20859  -13.48316   19.53624
       O     5.10711  -12.62541   19.05462
      H1     5.45764  -12.14765   19.84016
       H    11.16600   -8.73362   13.04400
       O    11.19023   -9.64995   13.36474
      H1    10.54620   -9.52132   14.05739
       H     8.82658  -12.19703   13.37020
       O     8.67178  -12.12992   12.39701
      H1     7.72226  -11.93905   12.33622
       H     6.51313  -12.28715   18.12511
       O     7.24090  -12.14396   17.50001
      H1     8.03997  -12.46259   18.04349
       H    11.56699  -17.69075   18.34072
       O    11.94638  -18.37319   18.91062
      H1    11.54964  -18.23055   19.77223
       H    12.29288   -7.45501   18.02858
       O    12.50580   -8.30294   18.48953
      H1    13.25381   -8.68908   17.98672
       H     4.50336  -14.81084   16.02257
       O     3.88881  -15.41152   16.57125
      H1     3.12825  -14.83358   16.83269
       H    11.26273   -9.34369   17.79281
       O    10.41765   -9.76209   17.47859
      H1    10.63815  -10.63130   17.88560
       H     7.33851   -9.41442   14.98017
       O     8.23919   -9.21378   14.58701
      H1     8.05464   -8.71533   13.78205
       H     9.05973  -14.00627   19.46910
       O     9.31084  -13.51369   18.70799
      H1     9.93909  -12.81550   19.14158
       H     4.23770  -11.72926   14.47541
       O     5.20841  -11.50772   14.31917
      H1     5.30457  -10.62856   14.75728
       H    12.58038  -14.67189   18.01436
       O    12.78789  -13.77277   18.24267
      H1    13.45214  -13.88291   18.95386
       H     6.22403  -13.61673   16.05053
       O     5.93957  -13.97744   15.21111
      H1     5.85014  -13.08012   14.77385
       H     8.56603  -16.29555   17.85508
       O     8.27557  -17.03997   18.47148
      H1     7.35414  -16.97250   18.26248
       H     6.77518  -15.42286   14.34739
       O     6.83182  -16.15836   13.75926
      H1     7.63190  -16.60159   14.19660

