90
frame 3 | Written by MDAnalysis XYZWriter (release 2.4.3)
       H   -16.85436   -7.60427   -2.59148
       O   -16.65324   -7.06265   -3.42276
      H1   -16.32105   -7.77093   -3.97963
       H   -11.27238   -5.00773   -4.87676
       O   -11.81204   -4.84157   -5.67551
      H1   -11.44755   -5.54054   -6.32395
       H   -11.98165   -9.59557  -10.77670
       O   -12.35315   -9.40827  -11.69991
      H1   -12.83412  -10.23222  -11.73695
       H    -9.95316   -8.05875   -9.68503
       O   -10.89401   -7.84627   -9.40736
      H1   -11.17346   -7.40015  -10.18686
       H   -13.33549   -3.29836   -8.99262
       O   -12.71694   -2.54114   -8.91120
      H1   -12.68766   -2.37440   -7.92665
       H   -10.80275   -6.58970  -12.08565
       O   -11.52420   -6.31386  -11.54611
      H1   -12.32086   -6.66339  -11.94559
       H   -12.44529  -12.65548   -8.95218
       O   -13.05741  -13.34923   -8.95721
      H1   -12.53727  -14.21494   -8.91171
       H   -15.49938   -5.05886   -8.33200
       O   -16.30971   -4.87147   -7.83307
      H1   -16.11393   -3.97506   -7.49661
       H   -10.35160   -7.30459   -7.79250
       O   -10.34667   -6.65992   -7.01007
      H1   -10.26436   -7.28318   -6.26671
       H   -16.57885   -7.63996   -9.27527
       O   -16.40484   -7.92983  -10.23014
      H1   -15.80054   -8.62803  -10.06635
       H   -11.31109   -3.02917  -10.39145
       O   -10.84129   -3.53262  -11.08180
      H1   -11.26350   -4.43220  -10.96093
       H    -9.04142  -10.22605   -7.02331
       O   -10.00236  -10.21195   -6.93238
      H1   -10.15165  -11.12448   -6.66228
       H   -16.91283   -6.65155   -7.41537
       O   -16.94574   -7.60185   -7.46295
      H1   -17.92258   -7.72701   -7.35231
       H   -13.37964   -8.47046   -3.79816
       O   -13.29158   -8.67068   -4.73930
      H1   -14.16588   -9.09328   -4.88149
       H   -15.84426   -9.44963  -12.90306
       O   -15.16053   -9.13585  -13.46357
      H1   -14.54883   -8.81364  -12.82735
       H   -14.54290  -10.28935   -9.85241
       O   -15.10092  -10.23256   -9.03699
      H1   -14.79366   -9.43034   -8.62890
       H   -12.45459  -10.46925   -8.58043
       O   -11.82477  -10.59956   -9.33577
      H1   -11.02107  -10.47517   -8.85544
       H   -17.92943   -8.89115  -10.21082
       O   -18.49659   -9.67125  -10.24706
      H1   -19.31019   -9.23892  -10.05897
       H   -11.37682  -13.00350   -5.22200
       O   -11.26443  -12.72017   -6.13442
      H1   -12.12430  -12.42188   -6.41880
       H   -11.37802   -8.72437   -4.68513
       O   -10.54553   -8.24604   -4.56475
      H1    -9.88445   -8.90979   -4.92518
       H    -8.03402   -9.44179   -9.87412
       O    -8.27785   -8.71352   -9.21214
      H1    -7.50860   -8.20823   -9.23454
       H   -14.98581   -5.75586   -5.31219
       O   -14.51612   -5.17206   -4.73829
      H1   -13.57350   -5.12465   -5.11122
       H   -13.18746   -8.46014   -6.88232
       O   -13.35898   -8.13836   -7.77516
      H1   -12.49665   -8.03567   -8.19536
       H   -13.87078   -5.75822   -3.23048
       O   -13.42680   -6.18713   -2.44879
      H1   -12.98722   -5.37689   -2.12528
       H   -14.79456  -12.35625   -4.58392
       O   -14.69769  -11.43731   -4.33233
      H1   -13.88683  -11.43772   -3.80355
       H   -14.25032  -11.81862   -7.51978
       O   -13.61660  -11.44437   -6.88293
      H1   -14.03472  -11.37895   -6.01559
       H   -18.05333  -11.56960   -6.85837
       O   -17.35281  -10.92396   -6.73798
      H1   -17.24392  -10.67433   -7.66229
       H   -14.09551   -5.74097   -9.95910
       O   -13.84037   -5.11630   -9.32706
      H1   -13.20269   -5.63541   -8.80635
       H   -16.26648   -9.85391   -5.38849
       O   -15.96599   -8.97633   -5.27535
      H1   -16.39388   -8.60272   -6.10617
       H   -15.32750   -7.01586  -11.28552
       O   -14.53691   -6.52619  -11.56415
      H1   -14.93700   -5.73009  -11.98226

