90
frame 3 | Written by MDAnalysis XYZWriter (release 2.4.3)
       H   -16.85436   -7.60427   -2.59148
       O   -16.65324   -7.06265   -3.42276
      H1   -16.32105   -7.77093   -3.97963
       H   -15.41608   -4.21119   -3.36495
       O   -15.39461   -3.47999   -2.74975
      H1   -14.95644   -3.91545   -1.98044
       H   -17.71141   -0.99104    5.30020
       O   -17.46537   -1.72340    5.80989
      H1   -17.90780   -1.54888    6.64119
       H   -16.77919   -6.56940    0.76367
       O   -16.29836   -6.11447    1.44228
      H1   -15.80694   -6.88328    1.84198
       H   -14.45479    1.26607    3.03156
       O   -14.32138    1.39585    4.00143
      H1   -14.03048    2.34167    3.97426
       H   -15.02464    3.56383    1.47535
       O   -14.72836    2.65682    1.33597
      H1   -15.48338    2.05725    1.13260
       H   -14.56537    1.52598   -1.41436
       O   -15.18143    2.24085   -1.60946
      H1   -14.79479    2.89358   -1.00639
       H   -19.01732   -2.19089    1.08875
       O   -18.93538   -2.49609    0.14050
      H1   -19.82829   -2.49569   -0.16518
       H   -12.77413   -4.45838    0.03213
       O   -11.87871   -4.57343   -0.29366
      H1   -11.54028   -5.07278    0.48102
       H   -18.54006   -3.14795    5.08686
       O   -18.89206   -4.00772    4.81542
      H1   -19.47059   -3.82777    4.05742
       H   -15.76180   -0.07291   -5.30446
       O   -15.18251   -0.28934   -6.08253
      H1   -14.40436   -0.76202   -5.63984
       H   -18.23041   -3.12568   -5.99054
       O   -18.95102   -3.18450   -5.30463
      H1   -18.55217   -3.76631   -4.65680
       H   -19.22169   -5.21482    1.51252
       O   -19.79667   -5.73556    1.00660
      H1   -19.76762   -6.51739    1.57269
       H   -17.42581    0.88149    0.27787
       O   -16.89924    0.96327    1.09493
      H1   -16.50702    0.05153    1.02973
       H   -15.28917   -4.54662    0.35256
       O   -14.44844   -3.95894    0.27835
      H1   -14.87283   -3.13978    0.47287
       H   -16.67691   -5.95747    4.73103
       O   -15.83007   -5.44387    4.67651
      H1   -15.89629   -4.95921    5.50474
       H   -14.40628   -0.70918    1.56651
       O   -15.10201   -1.35437    1.61655
      H1   -14.72936   -1.86696    2.38528
       H   -17.99012    3.51664    3.20739
       O   -18.11154    3.44569    2.26553
      H1   -17.78464    2.55165    2.12737
       H   -18.27043   -5.25525    3.84705
       O   -18.10878   -5.98645    3.27244
      H1   -17.21687   -5.89947    2.84263
       H   -17.56470   -1.98605   -0.84383
       O   -17.16158   -1.54701   -1.63559
      H1   -16.39776   -2.13001   -1.81704
       H   -19.99031    0.28344    4.50274
       O   -19.57800    0.54863    3.67515
      H1   -18.72111    0.87083    3.97613
       H   -18.81384   -8.00351   -1.09800
       O   -17.95225   -7.86579   -0.65907
      H1   -17.86308   -8.78418   -0.34040
       H   -18.80900   -5.13576   -2.13934
       O   -19.69462   -5.51156   -1.87125
      H1   -19.53166   -5.56947   -0.91621
       H   -18.44276   -1.51118   -4.67164
       O   -18.03379   -0.72666   -4.23015
      H1   -17.64712   -1.05702   -3.38090
       H   -14.20328   -2.90437    4.01912
       O   -13.82391   -3.07471    3.13072
      H1   -14.15320   -3.89426    2.86652
       H   -15.70431   -1.80376    5.75532
       O   -14.77025   -2.14142    5.69381
      H1   -14.13376   -1.41987    5.49967
       H   -17.42189   -5.71436   -3.53133
       O   -17.79025   -4.83429   -3.59653
      H1   -17.08518   -4.27508   -3.27966
       H   -12.29525   -2.88059   -1.93918
       O   -12.47023   -3.00642   -2.83872
      H1   -13.42908   -2.79413   -2.86402
       H   -18.76282   -0.14743   -1.26988
       O   -18.76294    0.77163   -0.93960
      H1   -19.69074    1.02914   -0.84710
       H   -16.48346    0.86834    4.34261
       O   -17.18154    0.91894    4.98081
      H1   -16.71698    0.95351    5.89333

