90
frame 0 | Written by MDAnalysis XYZWriter (release 2.4.3)
       H    -2.66187   14.63656    7.77484
       O    -2.07028   14.64938    6.97150
      H1    -1.16419   14.84301    7.38076
       H     2.79336   17.59827   15.39325
       O     3.61688   18.11520   15.35022
      H1     3.58891   18.42582   14.43259
       H     2.85710   13.19841   13.43937
       O     3.01722   14.10282   13.14265
      H1     3.11230   14.06110   12.16617
       H    -3.27740   17.47463   11.06877
       O    -3.73766   17.93614   11.83167
      H1    -3.08279   18.64919   12.00383
       H    -0.12356   12.05045    8.30511
       O    -0.70556   11.93038    9.10796
      H1     0.04532   11.63632    9.59393
       H     4.77094   17.14808    6.84593
       O     5.54822   17.36952    6.36447
      H1     5.97489   18.04194    6.89648
       H    -1.03596   15.14646   15.95428
       O    -0.09958   15.20004   15.77383
      H1    -0.15717   14.65532   14.94102
       H     3.21475   19.63656   12.95309
       O     4.07603   19.28378   13.02993
      H1     4.10213   18.59285   12.40903
       H     0.52198   16.88614   14.90012
       O     1.13730   17.31123   14.24001
      H1     0.66539   17.35040   13.42311
       H     2.00144   14.45013    5.11220
       O     1.03965   14.41894    5.33187
      H1     0.56463   14.38829    4.48250
       H    -0.02868   12.92812    5.85303
       O    -0.63054   12.19764    6.23050
      H1    -1.35098   12.80634    6.45542
       H    -3.26931   15.36073   15.88331
       O    -3.71866   15.76478   15.15253
      H1    -3.59307   16.70676   15.44495
       H     0.71266   15.80905   11.44895
       O     0.18630   16.59027   11.81697
      H1    -0.52819   16.05996   12.21529
       H    -3.60893   12.45747   11.53490
       O    -4.13620   11.86920   12.08113
      H1    -4.18597   12.21958   13.01425
       H    -1.88718   13.05478    9.92378
       O    -2.49700   13.44510   10.58011
      H1    -2.48326   14.37994   10.27042
       H    -2.86971   16.74310    9.18819
       O    -2.50846   16.27889    9.97873
      H1    -1.58685   16.49722    9.87230
       H     5.31192   19.23203    9.45163
       O     5.63349   18.42265    8.98669
      H1     6.59713   18.33063    9.37954
       H     1.73348   13.18648   10.43245
       O     1.73446   14.13152   10.42617
      H1     1.32925   14.37924    9.53692
       H     0.58500   18.51724    9.34282
       O    -0.08091   17.79515    9.39516
      H1     0.06256   17.64050   10.36525
       H    -1.95191   13.90994   12.81978
       O    -1.68588   14.77316   13.16319
      H1    -2.54623   15.07564   13.49098
       H     0.29982   16.09631    8.50045
       O     0.42935   15.19024    8.17858
      H1     1.17475   15.35405    7.52003
       H     1.74104   17.28413    5.86783
       O     2.66248   17.29977    6.08824
      H1     2.85194   18.21543    5.73524
       H     4.46503   14.15944    9.31174
       O     4.22728   14.38372   10.24841
      H1     3.29217   14.36362   10.13733
       H    -2.86276   16.76897    6.56498
       O    -2.33901   17.61695    6.72858
      H1    -2.58072   18.12894    5.96264
       H     3.53459   15.67881    5.45872
       O     3.92102   14.76443    5.43955
      H1     4.54697   14.90344    4.69797
       H    -0.14779   17.10867    4.41383
       O    -0.00848   17.68497    5.14003
      H1    -0.63490   17.31205    5.82049
       H     4.64775   16.62174   11.29448
       O     4.47047   16.85699   12.21133
      H1     4.53451   15.94123   12.52186
       H     3.73244   15.09566   14.54885
       O     4.21900   15.46513   15.29845
      H1     4.07502   16.43575   15.12863
       H    -5.89018   17.55968    9.49475
       O    -5.43142   18.38696    9.73163
      H1    -5.02796   18.14544   10.62545
       H    -2.46838   17.89523   16.78479
       O    -2.69557   18.58102   16.11327
      H1    -1.91261   19.19953   16.20580

