90
frame 3 | Written by MDAnalysis XYZWriter (release 2.4.3)
       H    -9.17298   11.68257  -10.36178
       O    -8.31995   11.28151  -10.20202
      H1    -7.90038   11.53786  -11.03305
       H   -11.71408    9.13911  -10.54319
       O   -11.04693    8.44079  -10.46579
      H1   -10.49031    8.71482   -9.72656
       H   -18.27201   11.47028   -7.25623
       O   -17.78723   11.67042   -8.06334
      H1   -17.60862   12.61922   -7.89936
       H   -12.50992   10.80113  -12.21953
       O   -12.85095   10.49304  -11.36979
      H1   -13.11581   11.34122  -11.00778
       H   -15.01778   10.26510   -8.59766
       O   -15.08811   11.17006   -8.19882
      H1   -15.97383   11.42127   -8.24080
       H    -9.03666    8.48129   -7.13670
       O    -8.44530    8.42788   -6.37752
      H1    -8.80628    7.64460   -5.88658
       H   -12.27197   13.36121   -3.51414
       O   -11.78656   13.48838   -2.69100
      H1   -12.10715   12.77641   -2.14770
       H   -12.06554    9.66605   -6.60229
       O   -11.86086    9.28034   -5.75001
      H1   -11.05518    9.76020   -5.46636
       H   -10.66206   16.88530   -6.98254
       O    -9.67595   16.69211   -6.92949
      H1    -9.33781   17.41500   -6.35800
       H    -9.72257   13.65428  -10.14543
       O   -10.39704   12.96889   -9.88848
      H1   -10.35423   13.04282   -8.90313
       H   -12.79104   15.88508   -7.98149
       O   -12.50135   16.79029   -7.70599
      H1   -13.32457   17.19736   -7.36331
       H    -8.59740   11.60653   -3.73866
       O    -8.31262   12.24103   -3.08136
      H1    -7.51646   11.99677   -2.61672
       H   -16.38183   15.05857   -7.50917
       O   -17.11642   14.45675   -7.61696
      H1   -17.78928   14.93868   -8.10727
       H    -8.24573   14.12163   -5.15301
       O    -7.38514   14.58379   -5.00237
      H1    -7.08115   14.12561   -4.19565
       H   -12.23581   11.94833  -14.19184
       O   -11.49863   12.10023  -13.59272
      H1   -11.57787   13.00707  -13.27285
       H   -11.48076   16.86972   -9.24411
       O   -11.28260   16.93632  -10.18246
      H1   -12.11078   16.63939  -10.61826
       H    -8.60648   13.71493   -7.61146
       O    -9.50937   14.02857   -7.39403
      H1    -9.42100   14.99850   -7.30697
       H    -8.89928    9.48450   -4.92028
       O    -9.49668    9.97820   -4.36025
      H1    -9.55024    9.40206   -3.56103
       H   -10.43128   10.23735   -8.62032
       O    -9.61744    9.66146   -8.54728
      H1    -9.05696   10.22118   -9.11648
       H   -13.49661   13.06174   -9.41334
       O   -13.02785   12.92314  -10.27661
      H1   -12.06630   13.07036  -10.06475
       H   -14.92859   11.38963   -6.47078
       O   -14.99607   11.55255   -5.48561
      H1   -15.24209   10.68774   -5.12258
       H   -12.31989   13.64054   -6.61989
       O   -12.07566   13.59684   -7.59867
      H1   -11.12795   13.79802   -7.54991
       H   -17.85008    9.68820  -10.68281
       O   -17.18460   10.27129  -10.30985
      H1   -17.64554   10.56483   -9.50905
       H   -16.51175   11.53097  -11.15620
       O   -16.25661   12.37002  -11.58188
      H1   -15.40753   12.47366  -11.13950
       H   -13.48228    9.05230   -4.67917
       O   -14.28638    8.66015   -4.26240
      H1   -14.85170    8.30189   -4.92095
       H   -12.32156   11.56963   -8.03771
       O   -12.08277   10.71109   -8.42066
      H1   -12.35146   10.85057   -9.31761
       H   -17.26886   12.68515   -3.70383
       O   -16.47030   13.14802   -3.58430
      H1   -15.89615   12.86511   -4.34803
       H   -15.70996    9.27915  -10.62508
       O   -14.98358    8.66647  -10.46820
      H1   -14.27342    8.97252  -11.11216
       H    -5.60265   10.25959   -8.05085
       O    -6.36803   10.83518   -7.90736
      H1    -6.98573   10.24989   -7.50263
       H   -13.50963   14.09032   -4.79482
       O   -13.07769   13.28107   -5.06407
      H1   -13.76253   12.57898   -5.18680

