90
frame 2 | Written by MDAnalysis XYZWriter (release 2.4.3)
       H     2.80430  -16.83846   15.66713
       O     2.40863  -17.71968   15.65005
      H1     2.44725  -17.91799   14.73742
       H     8.65869  -18.60848   13.63706
       O     8.29809  -18.24073   14.44837
      H1     7.37771  -18.62485   14.39842
       H    -1.07059  -16.26805    8.38436
       O    -1.11858  -16.39297    7.43793
      H1    -0.40925  -15.83528    7.13758
       H     0.94454  -18.96724   10.69360
       O     0.42542  -18.25494   11.12477
      H1    -0.33341  -18.80224   11.35026
       H     2.64477  -17.18898   12.60374
       O     2.64315  -18.03557   13.04684
      H1     1.79081  -18.35476   12.74759
       H    -3.41118  -17.48361   10.70797
       O    -3.35561  -17.07718    9.80532
      H1    -2.92555  -17.79521    9.27907
       H     4.74561  -17.53192    7.82373
       O     4.05228  -17.61462    8.53122
      H1     4.63596  -17.75861    9.35932
       H     5.25712  -18.74357   13.52496
       O     5.55111  -18.91442   14.44278
      H1     5.71534  -18.09923   14.90765
       H     0.78872  -16.78901   16.38618
       O     0.20960  -16.09733   16.73844
      H1    -0.63724  -16.48241   16.49833
       H    -1.31111  -13.99615   10.80167
       O    -1.52689  -13.21671   10.26995
      H1    -1.96741  -12.60629   10.90025
       H    -1.89730  -16.32178   10.59016
       O    -1.08731  -15.85050   10.89101
      H1    -0.50116  -16.64727   10.91344
       H     5.15047  -18.06571   17.61913
       O     5.64395  -17.56697   17.02147
      H1     5.09889  -16.78052   16.89891
       H     2.23532  -11.95571   13.43554
       O     2.56783  -12.10429   14.32581
      H1     2.19754  -12.94804   14.55298
       H     8.44092  -18.99232   10.98173
       O     8.14063  -18.27086   11.63889
      H1     7.21430  -18.16745   11.25615
       H     1.64774  -16.63346   19.68058
       O     1.39206  -15.78676   19.35817
      H1     1.01127  -15.97285   18.50527
       H     1.05903  -15.11406   15.57089
       O     1.57348  -14.71112   14.82423
      H1     0.81840  -14.70667   14.18923
       H     4.56038  -13.85994   11.27237
       O     3.87919  -13.23559   10.87342
      H1     3.89064  -13.39784    9.93935
       H     7.09185  -15.44236   11.24938
       O     6.24267  -15.01546   11.48858
      H1     6.15432  -15.24370   12.43619
       H     0.69961  -12.69338   11.49387
       O     0.66117  -11.76052   11.76890
      H1    -0.22822  -11.69400   12.10054
       H    -1.03233  -19.38781   17.50287
       O    -1.57236  -18.84408   16.89182
      H1    -2.01309  -18.30738   17.50029
       H    -3.82683  -15.27169   13.55634
       O    -3.01978  -15.70625   13.81195
      H1    -3.02083  -15.68396   14.78615
       H     2.49263  -19.04771    8.00450
       O     1.55884  -19.31921    8.19755
      H1     1.04750  -19.22321    7.36883
       H     3.15444  -16.46488    7.49460
       O     3.19768  -15.76810    6.83149
      H1     3.96795  -15.25890    7.08453
       H     4.50336  -14.81084   16.02257
       O     3.88881  -15.41152   16.57125
      H1     3.12825  -14.83358   16.83269
       H     5.11333  -18.03897   11.48128
       O     5.60187  -17.64085   10.80002
      H1     5.53503  -16.67390   11.03828
       H    -2.68509  -18.09563   14.70417
       O    -3.43948  -18.68804   14.55730
      H1    -3.65651  -18.43860   13.64012
       H     2.45565  -14.71340   13.29686
       O     2.91770  -15.13596   12.53978
      H1     3.04405  -14.37034   11.96484
       H    -4.78876  -16.81549   12.75240
       O    -4.41447  -17.53528   12.18868
      H1    -5.18310  -17.96282   11.79267
       H    -1.61703  -14.81875   13.30493
       O    -0.71620  -14.47352   13.30271
      H1    -0.33615  -14.84464   12.48340
       H     6.77518  -15.42286   14.34739
       O     6.83182  -16.15836   13.75926
      H1     7.63190  -16.60159   14.19660

