90
frame 3 | Written by MDAnalysis XYZWriter (release 2.4.3)
       H   -16.43891    4.51989   19.38458
       O   -16.76291    3.61052   19.43875
      H1   -17.71510    3.88902   19.61571
       H   -18.41470    1.54893   11.73890
       O   -18.49084    2.09210   10.94771
      H1   -17.65110    2.62374   11.03915
       H   -16.52274   -0.41962   11.97086
       O   -17.33767   -0.81446   12.38605
      H1   -17.47906   -0.23914   13.18156
       H   -12.20300   -1.33569   16.04719
       O   -12.87941   -0.76990   16.49659
      H1   -12.52964    0.10339   16.12081
       H   -17.78374    3.27589   16.31439
       O   -17.22168    2.46776   16.32331
      H1   -16.31932    2.79884   16.28690
       H   -18.73295   -6.15357   17.26225
       O   -19.07969   -7.00402   17.49947
      H1   -18.53194   -7.61909   16.96927
       H   -14.12741    3.51851   14.89061
       O   -14.76506    3.92034   15.45580
      H1   -14.16953    4.20499   16.12502
       H   -18.45391    6.26029   18.05343
       O   -17.54649    6.50443   17.80216
      H1   -17.66906    7.47460   17.71560
       H   -15.29927    2.16794   18.88119
       O   -14.61223    1.52331   18.76187
      H1   -14.83011    0.85967   19.52670
       H   -18.64958    1.76856   13.94524
       O   -18.00459    1.13440   14.22080
      H1   -17.61984    1.53824   15.02107
       H   -13.75898   -1.49901   18.38626
       O   -13.51025   -2.16984   18.99286
      H1   -13.36007   -1.60967   19.80828
       H   -17.88636    0.92527   17.51350
       O   -18.54730    0.43301   17.98344
      H1   -18.84025   -0.28612   17.43216
       H   -17.76823    4.71533   14.82411
       O   -18.36199    5.10704   15.55100
      H1   -17.68043    5.45883   16.17209
       H   -18.60801   -4.90039   14.36025
       O   -18.44160   -4.17047   14.98997
      H1   -17.71863   -3.75073   14.54115
       H   -14.54460   -0.34006   14.01173
       O   -14.99169   -0.60358   14.78463
      H1   -14.22196   -0.66523   15.44515
       H   -14.38647   -5.26901   17.70434
       O   -13.49703   -5.07488   17.38354
      H1   -13.06460   -5.91156   17.65470
       H   -16.80187    4.68061   10.71117
       O   -16.66362    3.88816   11.28977
      H1   -16.70920    4.31728   12.17488
       H   -19.76358    7.88194   16.57402
       O   -19.85973    8.33438   17.39364
      H1   -18.96311    8.81225   17.52656
       H   -16.01208    6.04455   13.49549
       O   -16.31397    5.14765   13.61572
      H1   -15.50582    4.76171   14.02648
       H   -13.59750   -5.76775   14.23228
       O   -13.98344   -4.87506   14.40005
      H1   -13.88571   -4.73950   15.37420
       H   -13.79165    5.38510   18.54103
       O   -13.48820    5.65468   17.61892
      H1   -12.57712    5.37568   17.76044
       H   -17.35725   -3.66273   19.11751
       O   -17.98241   -3.82855   18.39338
      H1   -18.76628   -3.44110   18.73664
       H   -17.79984   -2.70779   11.57444
       O   -17.95303   -3.57362   11.13997
      H1   -18.53765   -3.98079   11.76616
       H   -16.64871   -2.13635   13.31715
       O   -16.37536   -2.99214   13.78027
      H1   -15.58410   -2.75055   14.19813
       H   -16.17375   -6.36080   18.05651
       O   -16.20125   -5.88461   17.18830
      H1   -16.87423   -5.22476   17.35164
       H   -16.80543   -1.93788   17.40695
       O   -16.10443   -1.34242   17.20452
      H1   -15.96641   -1.39959   16.27274
       H   -14.53632    1.73896   12.18996
       O   -14.42926    2.67560   12.21874
      H1   -15.10933    2.93080   11.60329
       H   -13.13048   -0.64578   12.84446
       O   -13.90466   -0.34157   12.31193
      H1   -14.18605   -1.15840   11.85651
       H   -20.28200   -2.28833   16.87403
       O   -19.42269   -1.92288   16.72571
      H1   -18.87966   -2.69145   16.49185
       H   -13.27078    2.04642   16.55396
       O   -12.83927    1.89311   15.69894
      H1   -12.01700    2.42428   15.84857

