90
frame 3 | Written by MDAnalysis XYZWriter (release 2.4.3)
       H   -17.38954  -17.32951    8.03079
       O   -18.01126  -17.28911    7.28542
      H1   -18.36857  -18.20741    7.35808
       H   -10.39777  -10.43651   11.50074
       O   -10.20061  -10.72110   10.62969
      H1   -10.91950  -11.14799   10.21712
       H   -14.02251  -18.06150    5.86059
       O   -13.74896  -17.77942    6.75449
      H1   -13.30011  -16.94502    6.68062
       H    -9.76932  -15.08634    3.21740
       O    -9.00887  -14.65419    3.65667
      H1    -8.60764  -14.25631    2.86806
       H   -12.07749  -14.37353    6.56889
       O   -12.35521  -15.20105    7.03208
      H1   -13.25762  -14.96720    7.31587
       H   -17.47806  -13.20172    6.81755
       O   -18.30354  -12.96049    7.28051
      H1   -18.20215  -12.03461    7.29606
       H   -13.05553  -11.36035   10.83604
       O   -12.64727  -12.07074   11.32633
      H1   -13.09770  -12.88688   11.09125
       H   -15.70932  -14.35505    8.97821
       O   -15.10995  -15.01392    8.56900
      H1   -15.35694  -15.83333    8.91266
       H   -12.05975  -16.45105    3.85830
       O   -11.09094  -16.26193    3.82255
      H1   -10.71357  -16.75598    4.54883
       H   -10.43192  -15.48476    9.72358
       O   -10.72512  -16.30468    9.25451
      H1   -11.34138  -15.87054    8.63378
       H   -15.64934  -18.86449    9.15517
       O   -15.78725  -17.90459    8.92963
      H1   -15.14838  -17.86204    8.24692
       H   -15.60990   -9.98809    7.41228
       O   -14.73496   -9.65998    7.62650
      H1   -14.68467   -9.72164    8.53853
       H   -11.27612  -17.43646   10.65609
       O   -11.49959  -17.78253   11.55063
      H1   -11.69366  -16.99950   12.07337
       H   -14.09964  -17.84910   11.03070
       O   -14.45470  -17.12922   11.58356
      H1   -15.29787  -16.93285   11.16495
       H   -17.70424  -13.82002   10.28594
       O   -17.05877  -13.35598    9.79027
      H1   -17.56005  -13.15648    8.95888
       H    -9.90400  -11.15059    2.96933
       O   -10.45967  -11.85210    3.27492
      H1    -9.84915  -12.35105    3.90268
       H   -13.30249  -15.29222   11.04295
       O   -13.44185  -14.47768   10.54215
      H1   -14.00293  -14.91826    9.89909
       H   -14.27203  -15.45426    3.40657
       O   -14.42525  -15.80882    4.35678
      H1   -14.59724  -15.02798    4.87717
       H    -9.07610  -16.18613    8.26751
       O    -8.28589  -16.37586    7.68303
      H1    -8.76504  -16.82261    6.96722
       H   -12.34756  -12.05908    6.07739
       O   -12.50962  -12.81278    5.47502
      H1   -11.90243  -12.54443    4.70461
       H    -8.50708  -12.64049    5.87102
       O    -9.30373  -12.87067    5.38872
      H1    -9.11814  -13.77010    5.04523
       H   -15.23683  -13.46370    6.22644
       O   -15.99537  -13.73102    5.71806
      H1   -15.99987  -12.96206    5.14653
       H   -16.08557  -11.18177    3.40577
       O   -15.83988  -10.98522    4.37679
      H1   -14.89932  -11.06601    4.21365
       H   -15.11318  -14.96589   12.90233
       O   -14.66508  -14.06057   13.05177
      H1   -14.16690  -13.95698   12.20593
       H   -11.12182  -13.73480   11.11464
       O   -10.29308  -14.23387   10.93784
      H1    -9.62504  -13.55707   10.90752
       H   -13.21950  -10.57736    7.27868
       O   -12.34574  -10.92824    7.37664
      H1   -11.80513  -10.41167    7.99976
       H    -9.21869  -18.91292    5.14381
       O    -9.66832  -18.21860    5.60447
      H1   -10.41605  -18.60176    6.15063
       H   -15.76787  -16.71381    4.54759
       O   -16.39338  -17.42200    4.79475
      H1   -16.60979  -17.29824    5.75872
       H   -13.05208  -14.03625    1.97503
       O   -14.00214  -14.25561    1.84291
      H1   -14.50322  -13.95031    2.58322
       H   -17.48167  -16.22838    4.31237
       O   -18.02490  -15.41656    4.08822
      H1   -18.82208  -15.73257    4.52525

