90
frame 3 | Written by MDAnalysis XYZWriter (release 2.4.3)
       H    11.43424  -12.02085   -3.96500
       O    10.95027  -12.59969   -4.52294
      H1    10.58327  -12.01477   -5.20944
       H    12.85066   -8.37607   -7.58188
       O    13.57876   -8.28394   -8.16337
      H1    14.32400   -7.84879   -7.65867
       H    12.93814  -10.84763   -9.29469
       O    13.51481  -11.04382   -8.52585
      H1    13.67142  -10.14567   -8.11698
       H    13.70847   -4.63419   -5.34513
       O    13.32351   -5.39292   -5.83590
      H1    13.03352   -6.01084   -5.14949
       H     9.78944   -4.99221   -4.80739
       O     9.28682   -5.81054   -4.61614
      H1     8.39137   -5.42413   -4.51573
       H    13.39502   -9.24960   -3.69541
       O    13.93108   -9.27969   -2.88393
      H1    13.39345   -9.87080   -2.34737
       H    14.25495   -4.39849  -10.25579
       O    13.69764   -3.59990  -10.41719
      H1    12.80243   -3.94405  -10.41301
       H    15.77502   -6.58175   -7.32058
       O    15.53930   -7.00151   -6.48038
      H1    14.79559   -6.33767   -6.25431
       H    10.89605   -9.53721  -10.54087
       O    11.47950  -10.28723  -10.62421
      H1    11.13510  -10.85096  -11.35386
       H     8.45722   -5.18353   -6.83111
       O     8.48094   -4.57283   -7.55024
      H1     9.26432   -3.99759   -7.36330
       H    10.04637  -11.36763   -7.25291
       O     9.83401  -10.95406   -6.37481
      H1    10.04285   -9.97812   -6.42843
       H    15.42410   -5.75250   -9.69110
       O    15.74536   -5.21528   -8.99315
      H1    16.71705   -5.23922   -9.09965
       H    16.78439  -10.01122   -6.77932
       O    16.60853   -9.89267   -5.85825
      H1    16.26139   -8.97919   -5.85620
       H    10.37884   -6.58315   -9.03564
       O     9.45388   -6.69005   -8.74050
      H1     9.21444   -5.80156   -8.44928
       H    10.37590   -4.01962  -10.54619
       O    10.88410   -4.79886  -10.27382
      H1    10.79015   -5.33401  -11.04410
       H    10.95904   -6.73587   -3.86334
       O    11.76165   -7.15696   -4.19203
      H1    12.19120   -7.42573   -3.32019
       H     8.95391   -8.11630   -9.64127
       O     8.90981   -8.82476  -10.32504
      H1     8.24691   -8.57887  -10.95923
       H     9.90984  -10.08069   -3.19712
       O     9.40700   -9.30274   -3.49334
      H1     8.59483   -9.69656   -3.78000
       H    17.43857  -10.31730   -9.06587
       O    16.94118   -9.59968   -9.55048
      H1    17.61462   -8.87174   -9.54257
       H    12.94758   -4.40303   -7.52566
       O    12.83259   -3.44879   -7.70731
      H1    12.92708   -3.34895   -8.67966
       H    11.21672   -2.97399   -7.48563
       O    10.32738   -2.78663   -7.08679
      H1    10.20329   -1.83033   -7.22967
       H    10.17266   -7.81314   -7.29483
       O    10.84360   -8.43533   -6.99130
      H1    11.11221   -8.08896   -6.12574
       H    15.83326  -11.10340   -4.35732
       O    16.15226  -11.33533   -3.43824
      H1    15.68069  -10.67627   -2.90955
       H    11.08060  -13.16788   -8.41165
       O    10.13220  -12.95562   -8.52156
      H1     9.75925  -13.76359   -8.05898
       H    13.18114  -12.67713   -7.97588
       O    12.90782  -13.63683   -7.83397
      H1    13.20356  -13.62069   -6.93176
       H    15.31228   -9.63701  -10.72351
       O    14.63461   -9.42377  -11.38579
      H1    13.89988   -9.90880  -10.94236
       H     7.50430   -9.19877   -9.16136
       O     6.79247   -9.34747   -8.48849
      H1     6.12312   -8.71583   -8.76248
       H    14.53652   -6.47004  -11.83754
       O    14.19983   -6.52624  -10.89674
      H1    14.42772   -7.37841  -10.49182
       H    12.56457   -7.36290  -11.72651
       O    12.01886   -7.93811  -12.31886
      H1    12.29125   -8.80764  -11.93530
       H     7.55627   -8.15109   -7.22856
       O     7.50433   -7.37700   -6.62344
      H1     8.25424   -7.61333   -6.05827

