90
frame 3 | Written by MDAnalysis XYZWriter (release 2.4.3)
       H     7.47299   16.31821    2.84013
       O     7.05012   15.44926    3.05131
      H1     7.83139   14.95741    3.47486
       H    11.43246   13.54557   12.42595
       O    10.94390   14.03592   11.78031
      H1    10.02033   13.92463   12.14853
       H     3.82726   12.50734   12.72837
       O     4.20763   13.31402   12.47002
      H1     4.78245   13.09968   11.73808
       H     6.91522   17.89120    5.62157
       O     6.58796   18.45876    4.89015
      H1     7.31272   18.69249    4.34769
       H    11.97697   16.79563    5.54854
       O    12.65229   17.45792    5.30416
      H1    12.29840   18.21776    5.76784
       H    11.58328   16.43196   11.45141
       O    10.65829   16.77760   11.21491
      H1    10.12339   15.95434   11.37285
       H     8.26765   13.63866    5.12185
       O     8.94780   13.76841    4.39100
      H1     9.58599   14.34474    4.88351
       H     6.39303   10.36853    9.79853
       O     5.81249   11.00966    9.33812
      H1     5.00787   10.67486    9.61543
       H     9.98465   12.07135    4.48750
       O    10.19515   11.14712    4.49785
      H1    11.01741   11.28558    4.00924
       H     8.56728   14.48108    8.42222
       O     8.87871   15.41992    8.35119
      H1     8.18726   15.82351    7.75194
       H    13.07665   14.89363   11.42387
       O    13.29530   15.79063   11.10180
      H1    14.21815   15.94707   11.25924
       H     6.72396   17.52966    7.82674
       O     6.63503   16.84881    7.13381
      H1     5.81920   16.34564    7.40691
       H     4.92095   13.15527    6.79769
       O     4.12419   13.73738    6.62014
      H1     4.34401   14.10055    5.74549
       H     7.02208   18.25158   12.54560
       O     7.29394   17.97502   13.48186
      H1     6.48227   18.07476   14.02739
       H     9.49683   12.45448    9.30023
       O     8.73091   12.53127    8.73841
      H1     8.16315   12.07670    9.38237
       H    10.37923   19.93853   10.07929
       O     9.90017   19.09375    9.95329
      H1    10.33108   18.56495   10.70809
       H     6.87337   17.62512    9.80941
       O     7.07228   18.40206    9.20888
      H1     8.01435   18.36453    9.22201
       H    10.19211   15.25184    7.05613
       O    10.63398   15.28333    6.16779
      H1    11.34805   14.67758    6.42712
       H     7.81771   12.50560    7.03529
       O     7.03449   12.69679    6.54193
      H1     7.15637   12.22874    5.73501
       H     7.74957   11.25434   11.63625
       O     7.46305   12.01302   11.05532
      H1     6.63922   11.56126   10.73902
       H     3.79926   14.68074    8.28152
       O     4.07918   14.76208    9.22451
      H1     3.22042   14.52780    9.69738
       H    12.21429   16.85006    9.23802
       O    12.46533   17.68057    8.83467
      H1    11.61961   18.14011    8.68787
       H    14.77568   15.86619    7.68335
       O    14.42894   15.33006    8.42918
      H1    14.02365   15.87267    9.12585
       H    12.93063   12.65385    6.84747
       O    12.70635   13.54421    6.55895
      H1    13.36679   14.15553    6.99192
       H     7.70671   13.58888   11.18459
       O     8.09911   14.51366   11.28684
      H1     8.39609   14.68430   10.38098
       H     4.95156   15.94506   10.00185
       O     5.72501   16.30560   10.47639
      H1     6.06639   15.45055   10.82297
       H    12.82806   13.80999    4.71525
       O    13.44491   14.31929    4.12289
      H1    12.93385   14.39314    3.29244
       H     9.67367   10.51799    6.50185
       O     9.06002   10.22995    7.26235
      H1     9.12181   11.03317    7.82959
       H    13.43958   18.41895   10.32290
       O    13.58557   19.14190   10.99250
      H1    13.81579   18.67799   11.73101
       H    11.17241   12.75140   10.59799
       O    11.27796   12.08790    9.92570
      H1    12.20354   12.32228    9.60373

