90
frame 3 | Written by MDAnalysis XYZWriter (release 2.4.3)
       H   -19.10821  -16.04852    7.67195
       O   -19.78899  -15.36100    7.76098
      H1   -19.34612  -14.54982    7.41923
       H   -17.38954  -17.32951    8.03079
       O   -18.01126  -17.28911    7.28542
      H1   -18.36857  -18.20741    7.35808
       H   -14.02251  -18.06150    5.86059
       O   -13.74896  -17.77942    6.75449
      H1   -13.30011  -16.94502    6.68062
       H   -12.07749  -14.37353    6.56889
       O   -12.35521  -15.20105    7.03208
      H1   -13.25762  -14.96720    7.31587
       H   -17.47806  -13.20172    6.81755
       O   -18.30354  -12.96049    7.28051
      H1   -18.20215  -12.03461    7.29606
       H   -19.31661   -7.35095    7.35579
       O   -18.38864   -7.45389    7.55638
      H1   -17.99212   -7.45654    6.67812
       H   -13.05553  -11.36035   10.83604
       O   -12.64727  -12.07074   11.32633
      H1   -13.09770  -12.88688   11.09125
       H   -17.39030   -9.33433    5.01079
       O   -17.56904   -8.42762    5.24876
      H1   -18.41728   -8.22846    4.81941
       H   -18.10924  -10.31106    8.28155
       O   -17.59358  -10.27951    7.40661
      H1   -17.94178   -9.39574    7.09137
       H   -15.70932  -14.35505    8.97821
       O   -15.10995  -15.01392    8.56900
      H1   -15.35694  -15.83333    8.91266
       H   -16.60521  -10.63867    9.98377
       O   -16.04329  -10.40504   10.72522
      H1   -16.29783  -11.07476   11.40072
       H   -15.64934  -18.86449    9.15517
       O   -15.78725  -17.90459    8.92963
      H1   -15.14838  -17.86204    8.24692
       H   -15.60990   -9.98809    7.41228
       O   -14.73496   -9.65998    7.62650
      H1   -14.68467   -9.72164    8.53853
       H   -14.09964  -17.84910   11.03070
       O   -14.45470  -17.12922   11.58356
      H1   -15.29787  -16.93285   11.16495
       H   -17.70424  -13.82002   10.28594
       O   -17.05877  -13.35598    9.79027
      H1   -17.56005  -13.15648    8.95888
       H   -13.30249  -15.29222   11.04295
       O   -13.44185  -14.47768   10.54215
      H1   -14.00293  -14.91826    9.89909
       H   -14.78833  -10.93952    0.96366
       O   -15.53062  -11.10876    1.58610
      H1   -16.29470  -11.05913    0.93165
       H   -14.27203  -15.45426    3.40657
       O   -14.42525  -15.80882    4.35678
      H1   -14.59724  -15.02798    4.87717
       H   -12.34756  -12.05908    6.07739
       O   -12.50962  -12.81278    5.47502
      H1   -11.90243  -12.54443    4.70461
       H   -15.23683  -13.46370    6.22644
       O   -15.99537  -13.73102    5.71806
      H1   -15.99987  -12.96206    5.14653
       H   -17.43939  -18.47211    3.54156
       O   -18.10183  -18.83052    2.96815
      H1   -17.57562  -18.88680    2.19351
       H   -16.08557  -11.18177    3.40577
       O   -15.83988  -10.98522    4.37679
      H1   -14.89932  -11.06601    4.21365
       H   -17.21777  -16.25181   13.47413
       O   -16.83474  -15.65528   12.78444
      H1   -17.56180  -15.74014   12.12134
       H   -18.22941  -13.52779    4.22287
       O   -18.36620  -12.53473    3.98077
      H1   -18.91404  -12.28344    4.70680
       H   -16.55789  -13.40203   12.96329
       O   -16.98159  -12.53241   12.95125
      H1   -16.76178  -12.07546   13.76644
       H   -20.25663  -15.75877    1.53727
       O   -19.33817  -15.68641    1.30245
      H1   -18.95423  -15.81204    2.13601
       H   -13.21950  -10.57736    7.27868
       O   -12.34574  -10.92824    7.37664
      H1   -11.80513  -10.41167    7.99976
       H   -15.76787  -16.71381    4.54759
       O   -16.39338  -17.42200    4.79475
      H1   -16.60979  -17.29824    5.75872
       H   -13.05208  -14.03625    1.97503
       O   -14.00214  -14.25561    1.84291
      H1   -14.50322  -13.95031    2.58322
       H   -17.48167  -16.22838    4.31237
       O   -18.02490  -15.41656    4.08822
      H1   -18.82208  -15.73257    4.52525

