90
frame 3 | Written by MDAnalysis XYZWriter (release 2.4.3)
       H   -17.71141   -0.99104    5.30020
       O   -17.46537   -1.72340    5.80989
      H1   -17.90780   -1.54888    6.64119
       H   -18.41470    1.54893   11.73890
       O   -18.49084    2.09210   10.94771
      H1   -17.65110    2.62374   11.03915
       H   -16.52274   -0.41962   11.97086
       O   -17.33767   -0.81446   12.38605
      H1   -17.47906   -0.23914   13.18156
       H   -14.45479    1.26607    3.03156
       O   -14.32138    1.39585    4.00143
      H1   -14.03048    2.34167    3.97426
       H   -10.94862    2.35368    4.37546
       O   -10.91879    1.60120    5.00143
      H1   -11.54967    0.97748    4.54163
       H   -12.71727   -0.79719   10.52369
       O   -11.94617   -0.93017    9.91777
      H1   -12.47387   -1.20559    9.17566
       H   -11.33829    3.24895    7.96455
       O   -11.23740    4.22107    7.89566
      H1   -10.96658    4.32960    6.95580
       H    -8.27673    2.83130    6.86937
       O    -8.87540    2.11360    7.10965
      H1    -9.61055    2.17100    6.45465
       H   -12.01375    0.58967    8.37922
       O   -12.01122    1.44399    7.86774
      H1   -11.72421    1.10961    7.02485
       H   -15.95796    7.45189    5.32884
       O   -15.87383    7.23837    6.22787
      H1   -15.55663    8.04054    6.67526
       H   -12.22632   -1.13831    4.40322
       O   -12.48069   -0.83280    5.29112
      H1   -11.78970   -1.18617    5.85547
       H   -11.23024    6.32487    9.62634
       O   -12.21944    6.13724    9.45573
      H1   -12.09677    5.57264    8.72993
       H   -17.99012    3.51664    3.20739
       O   -18.11154    3.44569    2.26553
      H1   -17.78464    2.55165    2.12737
       H   -16.80187    4.68061   10.71117
       O   -16.66362    3.88816   11.28977
      H1   -16.70920    4.31728   12.17488
       H   -14.97837    1.38939    6.26059
       O   -15.46191    1.43753    7.10976
      H1   -15.07566    2.25638    7.46797
       H   -19.99031    0.28344    4.50274
       O   -19.57800    0.54863    3.67515
      H1   -18.72111    0.87083    3.97613
       H   -16.92928    6.03775    7.75935
       O   -16.97512    5.51897    8.51938
      H1   -16.38027    4.77715    8.39786
       H   -15.28603    4.44608    4.29850
       O   -14.37576    4.30598    4.07013
      H1   -14.23215    4.72954    3.24652
       H   -15.54246    0.65962    9.00151
       O   -15.49114    0.19991    9.86245
      H1   -15.38435   -0.69218    9.43906
       H   -18.56903    0.95307    9.57154
       O   -19.01736    0.37389    8.93028
      H1   -18.50030   -0.45434    9.01486
       H   -14.48645   -2.77084    9.09363
       O   -14.40533   -1.89990    8.65235
      H1   -14.54072   -2.17385    7.72719
       H   -14.04464    4.17003    7.38984
       O   -14.48741    3.68006    8.12531
      H1   -13.73326    3.42783    8.68203
       H   -14.53632    1.73896   12.18996
       O   -14.42926    2.67560   12.21874
      H1   -15.10933    2.93080   11.60329
       H   -12.42449    1.90851   11.40435
       O   -11.55345    1.84426   11.87752
      H1   -11.67699    2.69231   12.37623
       H   -14.25629    6.34815    6.28602
       O   -13.39955    5.90537    5.98493
      H1   -13.78603    5.25747    5.38095
       H   -15.70431   -1.80376    5.75532
       O   -14.77025   -2.14142    5.69381
      H1   -14.13376   -1.41987    5.49967
       H   -18.33633    4.37481    7.81208
       O   -18.50192    3.52152    7.40579
      H1   -19.09449    3.15843    8.08090
       H   -13.13048   -0.64578   12.84446
       O   -13.90466   -0.34157   12.31193
      H1   -14.18605   -1.15840   11.85651
       H   -17.44181    3.83841    5.71879
       O   -17.03682    4.42216    4.98449
      H1   -17.38422    5.30896    5.17355
       H   -16.48346    0.86834    4.34261
       O   -17.18154    0.91894    4.98081
      H1   -16.71698    0.95351    5.89333

