90
frame 3 | Written by MDAnalysis XYZWriter (release 2.4.3)
       H    17.75361   -1.03331   10.58482
       O    17.71057   -0.13639   10.18743
      H1    18.64249   -0.03984    9.96405
       H    12.13933    2.68555    9.35367
       O    11.67321    3.43230    9.05156
      H1    12.42265    4.00622    8.81636
       H    12.67341    0.99919   10.65489
       O    12.02037    0.66187   10.01978
      H1    11.78546   -0.20288   10.25181
       H    15.84951    0.60996    9.04648
       O    15.32637    1.27309    8.59999
      H1    15.89626    1.71739    7.99039
       H     9.60620   -2.33387   13.49065
       O    10.32984   -2.45306   12.84740
      H1    10.93475   -1.85652   13.28119
       H    16.15079    0.38556    3.80024
       O    16.25314   -0.59299    3.89631
      H1    15.91958   -1.03846    3.06990
       H    14.68464    2.74880    9.33896
       O    14.72451    3.67734    9.41064
      H1    15.06570    3.97152    8.53414
       H    10.47257   -1.01289    5.76324
       O    10.11558   -0.41125    6.39071
      H1     9.37442   -0.08674    5.89296
       H    13.69064   -5.57699    4.47005
       O    13.08242   -5.99610    5.09854
      H1    12.63811   -6.55782    4.44385
       H    10.24668   -2.51712   10.82465
       O    10.85716   -2.23166   10.15215
      H1    11.68285   -2.19336   10.60863
       H    14.55131   -4.52681    7.80216
       O    15.19569   -5.18295    8.20139
      H1    14.93804   -5.13042    9.11331
       H    15.89625   -4.94174   12.46039
       O    16.03944   -4.50382   11.62478
      H1    16.85887   -3.97232   11.76692
       H    13.65256   -1.32060   11.90764
       O    13.57276   -1.78692   11.04309
      H1    14.06347   -2.57022   11.24176
       H    16.87440   -4.41602    9.08809
       O    17.81429   -4.01705    9.15180
      H1    18.23085   -4.59551    8.43605
       H    11.31450    0.95713    6.80813
       O    12.15487    1.42170    6.98745
      H1    11.79751    2.02133    7.72068
       H    10.22199    0.87243    9.57618
       O     9.35506    0.85339    9.11712
      H1     8.98833   -0.02553    9.06519
       H     9.60685   -1.92434    7.15880
       O     9.24855   -2.83084    7.23691
      H1     8.73789   -3.06327    6.41341
       H    15.29534   -8.51739    8.41104
       O    15.51618   -7.77986    8.94425
      H1    14.92126   -7.09167    8.50132
       H     7.15623   -3.57121    9.53365
       O     7.91028   -4.12535    9.34199
      H1     8.37095   -3.70612    8.57687
       H    15.79297   -0.74584    5.74758
       O    15.68742   -0.98836    6.68111
      H1    15.13269   -0.24294    6.95324
       H    12.28063   -6.97694    8.36184
       O    12.40979   -7.89476    8.63376
      H1    11.50257   -8.17991    8.69762
       H    12.40786   -1.83359    4.54469
       O    11.90912   -2.60266    4.94455
      H1    12.48896   -2.86857    5.73744
       H    12.44432    1.61284    4.93256
       O    12.81911    1.77061    4.06704
      H1    12.57271    0.97144    3.61044
       H    18.02781   -1.99515   12.42511
       O    17.58212   -2.29792   11.58212
      H1    16.62833   -2.16922   11.78082
       H    11.00625   -4.36952    7.90207
       O    11.49918   -5.19340    7.75990
      H1    11.69485   -5.12681    6.81152
       H     8.56635   -6.05532    6.96498
       O     8.91663   -6.02019    6.01286
      H1     9.82356   -5.70098    6.16727
       H     9.79904   -5.07829   12.69802
       O    10.71367   -5.08627   12.35922
      H1    10.91311   -4.14223   12.41673
       H    12.51690   -0.02512    1.92878
       O    12.31992   -0.77773    2.54214
      H1    12.99761   -1.48538    2.43797
       H    10.77078   -4.86119    3.12163
       O    10.11467   -4.48956    3.74912
      H1    10.70638   -3.79602    4.07937
       H    14.15555   -2.03599    7.05594
       O    13.48032   -2.73406    7.16159
      H1    13.11983   -2.50298    7.97932

