90
frame 3 | Written by MDAnalysis XYZWriter (release 2.4.3)
       H    11.43246   13.54557   12.42595
       O    10.94390   14.03592   11.78031
      H1    10.02033   13.92463   12.14853
       H     3.24006   17.64923   14.48588
       O     4.20926   17.68248   14.64772
      H1     4.33857   18.53240   14.20022
       H     3.82726   12.50734   12.72837
       O     4.20763   13.31402   12.47002
      H1     4.78245   13.09968   11.73808
       H     6.91522   17.89120    5.62157
       O     6.58796   18.45876    4.89015
      H1     7.31272   18.69249    4.34769
       H     1.07496   16.61758   14.46914
       O     1.59191   17.44081   14.18110
      H1     1.73818   17.17952   13.24535
       H     8.90112   11.01738   13.48494
       O     8.52097   11.46184   14.27935
      H1     8.56386   12.41787   14.04586
       H    11.58328   16.43196   11.45141
       O    10.65829   16.77760   11.21491
      H1    10.12339   15.95434   11.37285
       H     8.76847   17.19620   14.32434
       O     9.52810   16.59881   14.33046
      H1    10.19336   17.21662   13.94673
       H     7.75911   14.13757   14.11702
       O     8.53873   14.09794   14.68816
      H1     8.91644   14.96386   14.60157
       H     6.39303   10.36853    9.79853
       O     5.81249   11.00966    9.33812
      H1     5.00787   10.67486    9.61543
       H     2.72401   12.10889    8.19590
       O     2.88887   11.20056    7.86792
      H1     2.97069   11.50951    6.98917
       H     1.00184   15.96426   11.35906
       O     0.86122   16.92066   11.66997
      H1    -0.13153   17.02148   11.69616
       H     8.56728   14.48108    8.42222
       O     8.87871   15.41992    8.35119
      H1     8.18726   15.82351    7.75194
       H     6.72396   17.52966    7.82674
       O     6.63503   16.84881    7.13381
      H1     5.81920   16.34564    7.40691
       H     4.92095   13.15527    6.79769
       O     4.12419   13.73738    6.62014
      H1     4.34401   14.10055    5.74549
       H     7.02208   18.25158   12.54560
       O     7.29394   17.97502   13.48186
      H1     6.48227   18.07476   14.02739
       H     9.49683   12.45448    9.30023
       O     8.73091   12.53127    8.73841
      H1     8.16315   12.07670    9.38237
       H    10.37923   19.93853   10.07929
       O     9.90017   19.09375    9.95329
      H1    10.33108   18.56495   10.70809
       H     6.87337   17.62512    9.80941
       O     7.07228   18.40206    9.20888
      H1     8.01435   18.36453    9.22201
       H    10.19211   15.25184    7.05613
       O    10.63398   15.28333    6.16779
      H1    11.34805   14.67758    6.42712
       H     2.01925   13.89207   11.31750
       O     1.68074   14.43640   10.57847
      H1     1.03007   13.85219   10.17537
       H     7.81771   12.50560    7.03529
       O     7.03449   12.69679    6.54193
      H1     7.15637   12.22874    5.73501
       H     1.31471   18.41017    8.84744
       O     0.63577   17.79317    9.13281
      H1     1.05547   17.45820   10.00892
       H     5.56320   14.30385   15.98212
       O     5.58208   14.03348   16.95357
      H1     6.52889   13.92332   17.16231
       H     7.74957   11.25434   11.63625
       O     7.46305   12.01302   11.05532
      H1     6.63922   11.56126   10.73902
       H     1.54521   16.93306    5.01580
       O     2.36302   16.67227    5.45957
      H1     2.83917   17.49969    5.33154
       H     3.79926   14.68074    8.28152
       O     4.07918   14.76208    9.22451
      H1     3.22042   14.52780    9.69738
       H     7.70671   13.58888   11.18459
       O     8.09911   14.51366   11.28684
      H1     8.39609   14.68430   10.38098
       H     4.95156   15.94506   10.00185
       O     5.72501   16.30560   10.47639
      H1     6.06639   15.45055   10.82297
       H     4.92866   14.21812   13.79684
       O     5.67935   14.68956   14.19122
      H1     5.26674   15.53407   14.13410

