90
frame 3 | Written by MDAnalysis XYZWriter (release 2.4.3)
       H   -12.86908    9.67526   -1.74189
       O   -13.01080    8.73186   -1.80057
      H1   -13.43980    8.65030   -2.65881
       H   -11.31783   10.29200    2.20464
       O   -11.31994   11.24464    2.19328
      H1   -10.45375   11.47676    1.82768
       H   -12.27197   13.36121   -3.51414
       O   -11.78656   13.48838   -2.69100
      H1   -12.10715   12.77641   -2.14770
       H   -11.15488    8.02089    2.50895
       O   -10.88414    8.51883    1.75658
      H1   -11.55309    8.19318    1.15008
       H    -9.08206   11.21455   -1.83448
       O    -9.73591   11.00632   -1.07735
      H1    -9.51539   10.05723   -1.04052
       H   -12.06554    9.66605   -6.60229
       O   -11.86086    9.28034   -5.75001
      H1   -11.05518    9.76020   -5.46636
       H    -6.27155   10.52817    1.13246
       O    -6.25236   11.47538    0.85073
      H1    -7.25301   11.58329    0.98716
       H   -16.63810   10.36533   -2.49806
       O   -15.89371    9.95038   -2.01420
      H1   -15.30046    9.72237   -2.71449
       H    -8.59740   11.60653   -3.73866
       O    -8.31262   12.24103   -3.08136
      H1    -7.51646   11.99677   -2.61672
       H    -9.10165   12.20921    3.90724
       O    -9.89569   11.98647    4.45313
      H1   -10.53929   11.85968    3.71174
       H   -14.92280   15.72048   -3.68391
       O   -14.08406   15.32899   -3.45779
      H1   -13.60708   16.12931   -3.14193
       H   -14.82652   10.02206    0.42231
       O   -13.97301    9.92514    0.82629
      H1   -14.02669   10.34453    1.69191
       H   -16.19863   12.36056   -1.66912
       O   -16.09806   12.53867   -0.73970
      H1   -15.53537   13.32244   -0.72402
       H   -13.10833   15.06924    2.60545
       O   -12.75451   15.51022    3.42003
      H1   -12.74459   16.44376    3.11497
       H   -10.20729   14.89785   -3.03523
       O    -9.91105   15.80015   -2.88460
      H1   -10.64392   16.42032   -2.98901
       H   -16.48158   11.69515    0.70676
       O   -16.55234   11.41697    1.64128
      H1   -15.77430   11.75568    2.10016
       H    -8.89928    9.48450   -4.92028
       O    -9.49668    9.97820   -4.36025
      H1    -9.55024    9.40206   -3.56103
       H   -14.64582   16.08064   -0.79237
       O   -15.00258   15.19986   -0.84542
      H1   -14.73421   15.13721   -1.80925
       H   -11.53364   14.39480   -0.80678
       O   -11.10893   14.44384    0.05938
      H1   -11.15377   15.36713    0.23847
       H    -8.50871    8.14346   -0.57864
       O    -9.45339    8.38750   -0.54550
      H1    -9.69084    8.33990    0.38856
       H   -13.09104    7.69724   -0.38786
       O   -12.95609    7.27862    0.44877
      H1   -13.55912    7.76372    1.02951
       H   -14.92859   11.38963   -6.47078
       O   -14.99607   11.55255   -5.48561
      H1   -15.24209   10.68774   -5.12258
       H   -13.70915   12.22993    2.45437
       O   -14.17687   11.81515    3.15628
      H1   -13.54552   11.28545    3.59795
       H   -13.48228    9.05230   -4.67917
       O   -14.28638    8.66015   -4.26240
      H1   -14.85170    8.30189   -4.92095
       H    -9.36658   14.02440   -0.45942
       O    -8.41200   13.87377   -0.67428
      H1    -8.56456   13.24140   -1.40781
       H   -13.99828   14.71068    0.45471
       O   -13.59777   14.15654    1.16758
      H1   -12.65256   14.25513    0.91481
       H   -17.26886   12.68515   -3.70383
       O   -16.47030   13.14802   -3.58430
      H1   -15.89615   12.86511   -4.34803
       H   -10.34828    5.73721   -1.96919
       O    -9.36438    5.82925   -2.08017
      H1    -9.22483    6.70825   -1.78082
       H   -13.01384   10.94051   -0.30642
       O   -12.51832   11.27244   -1.07915
      H1   -11.55671   11.21058   -0.81557
       H   -13.50963   14.09032   -4.79482
       O   -13.07769   13.28107   -5.06407
      H1   -13.76253   12.57898   -5.18680

