90
frame 3 | Written by MDAnalysis XYZWriter (release 2.4.3)
       H   -13.25858    1.06491   -9.83493
       O   -12.65025    1.83284   -9.60932
      H1   -12.79773    2.48112  -10.34023
       H   -12.22653    4.38980  -11.10252
       O   -12.46008    3.64252  -11.66717
      H1   -13.33723    3.86987  -12.00470
       H    -7.98529    0.64066   -8.94778
       O    -8.55428   -0.13552   -8.99361
      H1    -8.91954   -0.43312   -8.12272
       H   -13.63038    1.13016   -6.76747
       O   -13.23218    1.94753   -7.00606
      H1   -12.99249    1.92793   -7.94415
       H    -5.66792   -2.08576   -9.81237
       O    -6.39769   -1.85839  -10.42129
      H1    -6.99786   -1.36761   -9.80096
       H    -5.30601    1.61449  -14.96210
       O    -6.23080    1.82312  -14.78251
      H1    -6.64369    1.93224  -15.64707
       H    -5.78428   -1.40804  -14.43956
       O    -6.29597   -0.88314  -15.09300
      H1    -6.16097   -0.00438  -14.69323
       H   -13.33549   -3.29836   -8.99262
       O   -12.71694   -2.54114   -8.91120
      H1   -12.68766   -2.37440   -7.92665
       H    -8.81447   -3.47896  -10.83169
       O    -7.99756   -3.89775  -10.53101
      H1    -7.33778   -3.12180  -10.47107
       H   -11.31109   -3.02917  -10.39145
       O   -10.84129   -3.53262  -11.08180
      H1   -11.26350   -4.43220  -10.96093
       H    -9.45589    0.28609  -10.79778
       O    -9.75022    1.06357  -11.27438
      H1   -10.10058    0.72027  -12.10717
       H    -8.87626   -2.10693  -12.79535
       O    -8.61191   -1.26193  -12.43501
      H1    -7.69297   -1.29690  -12.55416
       H    -7.62801    4.41062  -12.44226
       O    -7.29927    5.26103  -12.15418
      H1    -8.17248    5.76075  -12.16724
       H   -12.62537   -1.81006  -13.23441
       O   -13.00889   -1.04193  -12.86889
      H1   -12.24629   -0.46730  -12.88797
       H   -10.14928   -3.46705  -13.85952
       O    -9.21532   -3.45931  -14.20177
      H1    -9.41028   -3.41637  -15.16674
       H   -14.12803   -0.70038  -10.84929
       O   -14.07210   -0.59029   -9.88011
      H1   -13.38172   -1.21230   -9.52699
       H    -9.99210   -1.07897   -5.98049
       O   -10.28423   -0.78954   -6.85178
      H1   -10.24733    0.19413   -6.96470
       H    -8.35013    1.93154  -12.11532
       O    -7.92004    2.63590  -12.63350
      H1    -7.34894    2.19065  -13.29862
       H    -9.71438    2.93100   -8.56409
       O    -9.61203    3.23834   -9.48319
      H1   -10.01101    2.51101   -9.98946
       H   -10.78363    5.04018  -15.94426
       O   -10.55600    5.04447  -14.99706
      H1   -10.77658    4.13760  -14.71281
       H    -9.49260    0.08568  -13.53935
       O   -10.21354    0.00029  -14.21115
      H1   -10.57279    0.90637  -14.37402
       H   -10.53384    4.97424   -9.77520
       O   -11.29359    5.54706   -9.90088
      H1   -10.83640    6.26682  -10.38328
       H   -10.11071    2.62767   -6.34188
       O   -10.46187    1.99833   -7.02601
      H1   -11.40095    2.04617   -6.80974
       H    -6.47930    2.92489   -9.03614
       O    -7.18195    2.28129   -8.90292
      H1    -7.97136    2.75331   -9.20547
       H   -12.11840   -3.73990  -12.65006
       O   -12.02809   -3.48590  -13.58262
      H1   -12.56254   -4.09689  -14.15123
       H   -14.17491   -0.05241  -13.77255
       O   -15.01052    0.35945  -14.04176
      H1   -14.97781    1.20438  -13.49984
       H    -9.23606   -0.08336  -15.64137
       O    -8.80503   -0.20085  -16.48871
      H1    -8.01818   -0.73439  -16.17138
       H   -12.05914    2.18242  -14.69053
       O   -11.36480    2.53897  -14.15361
      H1   -11.84750    2.77100  -13.34125
       H   -13.59161    1.11958  -15.66204
       O   -13.21714    2.00470  -15.92893
      H1   -12.57912    1.65462  -16.58050
       H    -5.29342    3.15275  -11.23497
       O    -5.27256    2.27475  -11.62022
      H1    -5.87690    1.82532  -11.05322

