90
frame 3 | Written by MDAnalysis XYZWriter (release 2.4.3)
       H    -8.20556    1.38867    8.65534
       O    -7.70908    1.30574    9.49931
      H1    -8.38195    1.71376   10.13088
       H   -10.52311    7.24567   13.33091
       O    -9.71119    7.60164   12.88774
      H1    -9.05471    7.62573   13.58224
       H   -10.68769    3.97361   14.03380
       O   -10.84242    4.51898   13.25404
      H1   -11.30414    5.25048   13.72213
       H   -10.09453    2.02757   15.73483
       O   -10.18581    2.96908   15.64392
      H1    -9.97598    3.27091   16.56180
       H   -12.71727   -0.79719   10.52369
       O   -11.94617   -0.93017    9.91777
      H1   -12.47387   -1.20559    9.17566
       H    -6.36379    4.14569    9.77270
       O    -5.91003    3.37975    9.40582
      H1    -6.66205    2.73099    9.43054
       H    -9.86890    4.98165    9.26343
       O    -9.37447    5.69873    9.52616
      H1    -8.95399    5.47339   10.42239
       H    -8.32849    3.29388   14.45620
       O    -7.80680    2.70020   13.88239
      H1    -7.36306    2.02830   14.39974
       H   -11.33829    3.24895    7.96455
       O   -11.23740    4.22107    7.89566
      H1   -10.96658    4.32960    6.95580
       H    -8.27673    2.83130    6.86937
       O    -8.87540    2.11360    7.10965
      H1    -9.61055    2.17100    6.45465
       H   -12.01375    0.58967    8.37922
       O   -12.01122    1.44399    7.86774
      H1   -11.72421    1.10961    7.02485
       H   -11.50080    0.03102   12.59751
       O   -11.32833   -0.81867   13.08547
      H1   -10.42376   -1.05552   12.76434
       H    -8.91634    5.47412   12.42315
       O    -8.17713    5.11088   11.89926
      H1    -8.48755    4.20684   11.67963
       H    -8.66442    2.23543   12.45200
       O    -9.02511    2.42972   11.54155
      H1    -9.94415    2.13278   11.70120
       H   -11.23024    6.32487    9.62634
       O   -12.21944    6.13724    9.45573
      H1   -12.09677    5.57264    8.72993
       H    -9.04765   -0.00778   15.54428
       O    -9.97258   -0.03066   15.78375
      H1   -10.41302   -0.27060   14.94025
       H    -9.70240   -1.63900    9.06864
       O    -8.73158   -1.47018    9.14677
      H1    -8.55925   -0.59449    9.48357
       H    -7.24246    5.60106    7.37791
       O    -7.59679    6.42347    7.83765
      H1    -8.37999    6.01882    8.33558
       H    -5.24320    4.29784   13.86225
       O    -5.77958    4.47181   14.65492
      H1    -6.59491    4.17910   14.29624
       H    -7.97413   -2.76084   10.51870
       O    -7.94498   -3.62144   10.93324
      H1    -7.03738   -3.63836   11.21363
       H    -5.90830    1.14917   12.26102
       O    -6.56497    0.50093   11.95974
      H1    -6.93630    0.88559   11.15832
       H   -11.54903   -2.60460   10.51340
       O   -11.67477   -3.51172   10.79110
      H1   -10.83140   -3.69497   11.30484
       H    -8.49562   -1.32820   13.49168
       O    -8.70189   -1.14254   12.56263
      H1    -7.97888   -0.50529   12.36670
       H   -14.04464    4.17003    7.38984
       O   -14.48741    3.68006    8.12531
      H1   -13.73326    3.42783    8.68203
       H   -14.53632    1.73896   12.18996
       O   -14.42926    2.67560   12.21874
      H1   -15.10933    2.93080   11.60329
       H    -5.91042    7.57216   11.96479
       O    -5.85525    6.66152   12.35901
      H1    -6.60126    6.12687   11.99231
       H   -12.42449    1.90851   11.40435
       O   -11.55345    1.84426   11.87752
      H1   -11.67699    2.69231   12.37623
       H    -6.99910    1.40478   16.73350
       O    -7.27976    0.91132   15.90810
      H1    -6.64635    0.13328   15.89522
       H   -13.13048   -0.64578   12.84446
       O   -13.90466   -0.34157   12.31193
      H1   -14.18605   -1.15840   11.85651
       H   -13.27078    2.04642   16.55396
       O   -12.83927    1.89311   15.69894
      H1   -12.01700    2.42428   15.84857

