90
frame 3 | Written by MDAnalysis XYZWriter (release 2.4.3)
       H   -11.93749  -16.20318   18.02428
       O   -11.88582  -16.39770   18.97312
      H1   -12.72834  -16.06661   19.26969
       H   -13.60613  -12.06357   15.20546
       O   -14.22261  -11.69086   14.55492
      H1   -14.50643  -12.55172   14.06356
       H   -13.42710  -13.28377   17.70281
       O   -13.09573  -13.61222   16.88418
      H1   -12.12332  -13.63373   17.04315
       H   -16.71643  -13.98613   17.71427
       O   -16.24900  -13.38943   17.05928
      H1   -15.42243  -13.84334   16.91028
       H   -15.01083  -18.75938   15.22122
       O   -14.45362  -18.98368   15.97419
      H1   -13.72314  -19.43736   15.50974
       H   -13.05553  -11.36035   10.83604
       O   -12.64727  -12.07074   11.32633
      H1   -13.09770  -12.88688   11.09125
       H   -10.47701   -7.17466   16.82203
       O   -11.22878   -7.72264   16.82993
      H1   -10.77972   -8.45965   17.24475
       H   -18.50295  -13.65395   16.07395
       O   -19.04251  -14.33748   15.77491
      H1   -18.46356  -15.05804   15.51318
       H   -16.42106  -11.66037   18.22226
       O   -16.58663  -11.04916   18.95262
      H1   -17.07675  -11.65145   19.53685
       H   -15.53431   -9.31469   16.43047
       O   -15.17309  -10.16702   16.67415
      H1   -15.06156  -10.65885   15.88970
       H   -14.57528   -8.37095   18.55112
       O   -13.74431   -7.94575   18.24306
      H1   -13.66252   -8.35166   17.30058
       H    -8.92463  -16.05503   13.45651
       O    -9.48260  -15.24057   13.66810
      H1    -9.52332  -14.78641   12.81837
       H   -12.91683   -8.37748   13.73279
       O   -12.51480   -7.54147   14.05472
      H1   -12.14251   -7.93877   14.88827
       H   -11.99982  -13.72844   13.74624
       O   -11.57144  -12.90098   13.90620
      H1   -12.06407  -12.27331   13.41022
       H   -12.51984  -16.44740   13.94577
       O   -12.14848  -15.80082   13.36813
      H1   -11.23986  -15.74280   13.78793
       H   -17.14219  -16.57504   16.28601
       O   -17.63007  -16.59617   15.40134
      H1   -18.19927  -17.39938   15.44189
       H   -10.04116  -13.15125   16.27210
       O   -10.49380  -13.27766   17.13548
      H1   -10.64845  -12.37857   17.49579
       H    -9.04550  -14.75041   19.35951
       O    -9.21829  -13.80717   19.45480
      H1    -9.51664  -13.57852   18.58817
       H   -13.17466  -10.01822   12.30745
       O   -12.86139  -10.00646   13.23630
      H1   -13.42263  -10.77739   13.55483
       H   -18.43329  -14.62859   17.94563
       O   -18.14240  -14.14118   18.74864
      H1   -18.86813  -13.42768   18.86694
       H   -15.26317  -15.99698   18.09661
       O   -15.64647  -16.69263   17.53140
      H1   -14.96935  -16.91577   16.88235
       H   -16.92552  -12.07445   15.85252
       O   -17.47215  -11.27712   15.65183
      H1   -16.81789  -10.58023   15.92021
       H   -10.38088  -15.93040   15.69057
       O   -11.16611  -16.46517   15.91132
      H1   -10.97167  -17.39539   15.72519
       H   -15.11318  -14.96589   12.90233
       O   -14.66508  -14.06057   13.05177
      H1   -14.16690  -13.95698   12.20593
       H   -10.04647  -11.95160   14.56456
       O    -9.09496  -11.88060   14.49831
      H1    -8.78467  -12.79671   14.22372
       H   -17.21777  -16.25181   13.47413
       O   -16.83474  -15.65528   12.78444
      H1   -17.56180  -15.74014   12.12134
       H   -16.55789  -13.40203   12.96329
       O   -16.98159  -12.53241   12.95125
      H1   -16.76178  -12.07546   13.76644
       H   -13.58804  -12.07084   19.63037
       O   -14.37804  -12.48714   19.28420
      H1   -15.00530  -11.77879   19.15287
       H    -9.48449   -9.84742   18.20255
       O   -10.31760  -10.08901   17.82128
      H1   -10.87301  -10.30480   18.60575
       H   -15.86791  -19.18410   19.88823
       O   -16.46899  -19.11078   19.16543
      H1   -15.94580  -18.51578   18.60647

