90
frame 5 | Written by MDAnalysis XYZWriter (release 2.4.3)
       H     9.52591   17.46839    2.76939
       O     8.80400   17.99544    3.00244
      H1     8.38326   17.50250    3.68881
       H     7.47240   16.77550    8.30032
       O     7.72144   16.01467    8.85092
      H1     7.67327   15.23561    8.28756
       H     8.05646   10.15336    3.30098
       O     8.86716   10.12746    2.77697
      H1     9.14521   11.08355    2.76798
       H    10.56096   19.33543    1.03674
       O    11.33943   19.54896    1.48667
      H1    11.25477   19.23683    2.39046
       H     3.45789   20.10499    4.51851
       O     3.53588   19.10447    4.65938
      H1     3.52501   18.65365    3.78218
       H     3.60029   18.43674    6.57545
       O     3.36562   18.28204    7.45116
      H1     2.42606   18.60859    7.48866
       H     2.61448   15.20385    6.75541
       O     3.08370   15.70408    7.48266
      H1     3.13072   16.64955    7.34285
       H     4.70070   14.65260    1.81793
       O     4.79130   15.41111    1.22730
      H1     4.56209   16.18878    1.76286
       H     7.57944   16.79172    0.55121
       O     7.87060   15.95755    0.12540
      H1     8.79467   15.93510    0.33893
       H     2.41275   13.24422    5.31557
       O     1.92331   13.54708    6.07078
      H1     2.07693   12.77240    6.66377
       H    10.20858   13.88058    6.19956
       O    10.42560   13.16858    5.60339
      H1    11.38810   12.98153    5.61805
       H     7.91037   18.70121    7.59366
       O     7.79927   18.09363    6.85375
      H1     7.10553   18.36256    6.24000
       H     9.17212   16.36321    7.21308
       O     9.66627   15.82594    6.60090
      H1     9.12585   15.61840    5.84558
       H     7.44728   15.04939    3.36212
       O     7.67623   15.37692    4.27706
      H1     6.94849   14.91212    4.76085
       H     6.15883   10.87207    3.28894
       O     6.29486   10.09546    3.91645
      H1     5.56998    9.44950    3.73046
       H     8.05922   11.91811   -1.84461
       O     7.82642   12.86764   -1.69545
      H1     8.04747   13.00585   -0.72123
       H     5.83073   10.76183    5.68719
       O     5.65469   11.27208    6.47628
      H1     6.26947   10.97482    7.16758
       H    11.51746   19.34710    4.74900
       O    10.60692   19.49238    4.37760
      H1    10.18154   18.63719    4.44563
       H     6.76350   19.45438    1.12971
       O     7.04714   18.52636    1.17972
      H1     7.75363   18.64688    1.85547
       H    10.72858   11.06006    8.01569
       O    10.46274   11.05135    7.05522
      H1    10.35275   11.96575    6.76820
       H    11.90151   17.72470    6.84164
       O    11.80501   17.40914    5.90095
      H1    11.14193   16.75388    6.06889
       H     8.44617   18.90644    0.10034
       O     9.21119   19.18657   -0.46479
      H1     8.82006   19.94605   -0.85810
       H     5.26796   17.82201    1.95200
       O     4.30820   17.89381    2.19585
      H1     3.84385   18.40891    1.54128
       H     5.94618   13.27265    6.01396
       O     5.97435   14.22173    6.11259
      H1     5.16169   14.56055    6.50915
       H     8.61135   13.54356    1.91497
       O     7.73942   13.68631    1.53789
      H1     7.78727   14.48103    0.99868
       H    10.64840   16.15495    0.63309
       O    10.30687   15.83462    1.48197
      H1    10.63265   14.91036    1.61201
       H    12.78238   13.62967    2.18152
       O    12.43303   12.75016    2.09494
      H1    12.76585   12.12353    2.76132
       H     5.51058   18.46157    4.20941
       O     6.43697   18.59725    4.48436
      H1     6.66665   19.47314    4.22346
       H     9.96136   13.04094    3.77641
       O     9.97527   12.75887    2.86111
      H1    10.92485   12.67027    2.60512
       H     6.20378   12.68267    2.17580
       O     5.36770   12.36374    2.54912
      H1     4.87825   12.04435    1.80605

