90
frame 2 | Written by MDAnalysis XYZWriter (release 2.4.3)
       H   -16.88344   19.04932   13.11549
       O   -17.68459   18.52611   13.00460
      H1   -17.52306   17.77173   13.51348
       H   -14.94669   14.52648    5.88192
       O   -14.05242   14.76600    6.07791
      H1   -13.74406   14.79040    5.12565
       H   -19.56346   13.08122    2.32317
       O   -19.08995   12.35116    2.77029
      H1   -18.30346   12.35047    2.23835
       H   -16.26198   15.70608    2.92543
       O   -16.29250   14.84068    2.60601
      H1   -17.12243   14.62978    2.26137
       H   -15.07517   16.74254    8.68744
       O   -15.35708   17.58186    9.06028
      H1   -15.99282   17.91964    8.36242
       H   -16.29408   15.97147   14.66598
       O   -17.05943   16.56977   14.80231
      H1   -17.19890   16.63901   15.78760
       H   -14.47496   16.61047   13.19851
       O   -14.05974   17.41507   12.85531
      H1   -13.35984   17.60097   13.45442
       H   -18.73897    9.68397    8.28414
       O   -18.06269   10.32280    8.41374
      H1   -17.52258   10.09811    7.66317
       H   -16.13955   14.08788    4.41702
       O   -16.34961   13.71017    5.34263
      H1   -17.30341   13.68671    5.34154
       H   -17.55098   17.12943   11.42501
       O   -17.21092   16.35006   10.98665
      H1   -16.39661   16.61136   10.63179
       H   -18.46009   10.04477   10.42460
       O   -18.47887    9.33534   11.10814
      H1   -17.62162    8.97056   10.85289
       H   -17.08898   17.90893    5.54658
       O   -16.85207   18.02623    6.51493
      H1   -17.71295   18.48353    6.74984
       H   -19.13291   15.94773    8.16175
       O   -18.94744   16.77952    8.61075
      H1   -18.24235   16.53223    9.25442
       H   -13.11637   15.55141   10.84288
       O   -12.99724   16.39664   10.37665
      H1   -13.53811   16.95390   10.92280
       H   -14.89469   17.62968    5.95604
       O   -14.01475   17.72127    5.65173
      H1   -13.94115   16.76836    5.37157
       H   -16.43052   12.39841   13.62446
       O   -16.28726   12.74049   14.50791
      H1   -17.16714   12.95598   14.84970
       H   -17.92152   14.96597   11.08347
       O   -18.24662   14.07253   11.18270
      H1   -18.60124   13.78215   10.36478
       H   -16.76726   13.39251   11.16401
       O   -16.03235   12.68806   11.34164
      H1   -15.26393   13.28679   11.26583
       H   -14.08774   18.89861    9.57479
       O   -13.88922   19.86170    9.69715
      H1   -12.92878   19.72497   10.00759
       H   -19.03653   11.27296   14.30614
       O   -19.00272   12.01282   14.88109
      H1   -19.14265   12.71841   14.26913
       H   -17.99797   17.24952    4.42860
       O   -17.16701   17.48049    3.93925
      H1   -17.39956   18.33382    3.56299
       H   -18.54179   12.12781    5.26605
       O   -19.15467   12.81129    5.58331
      H1   -19.47451   13.04304    4.71433
       H   -18.86842   14.57267   13.00550
       O   -19.04341   14.73563   13.95609
      H1   -18.19635   15.19516   14.09513
       H   -14.55009   15.13245   15.30851
       O   -14.88804   15.09019   14.38502
      H1   -15.34437   14.24939   14.38031
       H   -14.00764   10.74516   11.46448
       O   -14.17240   10.85089   10.47559
      H1   -15.03277   11.36834   10.51623
       H   -19.35755   12.87634    7.89600
       O   -19.05702   13.03571    8.80956
      H1   -18.57349   12.20021    8.96686
       H   -12.60330   18.35251    6.73430
       O   -12.02096   18.97292    7.20148
      H1   -12.66387   19.65071    7.38776
       H   -12.57718   13.80815    6.82561
       O   -11.90994   13.09753    6.75055
      H1   -11.70394   13.09205    5.84537
       H   -12.99338   13.16088   11.71678
       O   -13.59893   13.89413   11.85214
      H1   -13.66021   13.83417   12.80605
       H   -16.44665   11.74558    5.04440
       O   -17.23820   11.11113    4.87544
      H1   -17.17293   10.36382    5.51703

