90
frame 3 | Written by MDAnalysis XYZWriter (release 2.4.3)
       H   -10.39777  -10.43651   11.50074
       O   -10.20061  -10.72110   10.62969
      H1   -10.91950  -11.14799   10.21712
       H   -14.19332   -9.56478   10.72682
       O   -13.24190   -9.50700   10.54955
      H1   -13.04562   -8.55961   10.48640
       H    -9.15191   -7.76557   14.15163
       O    -9.65035   -7.01771   13.78131
      H1   -10.52819   -7.42891   13.59347
       H   -13.10131   -6.95547    4.53289
       O   -13.27796   -6.13763    3.98229
      H1   -14.24367   -6.07367    4.14726
       H   -12.21152   -6.75553    7.54689
       O   -11.26933   -6.93888    7.53428
      H1   -10.90536   -6.32382    6.85493
       H    -9.24218   -7.85909    5.97637
       O    -9.75841   -7.86075    5.12822
      H1   -10.68082   -8.03439    5.45047
       H   -19.31661   -7.35095    7.35579
       O   -18.38864   -7.45389    7.55638
      H1   -17.99212   -7.45654    6.67812
       H   -13.05553  -11.36035   10.83604
       O   -12.64727  -12.07074   11.32633
      H1   -13.09770  -12.88688   11.09125
       H   -19.53227   -5.90068   11.86027
       O   -19.10793   -5.56221   12.66546
      H1   -18.24638   -6.03489   12.61820
       H   -12.79994   -5.65159   10.39511
       O   -13.19483   -6.52523   10.51190
      H1   -13.74309   -6.71664    9.74547
       H   -16.60521  -10.63867    9.98377
       O   -16.04329  -10.40504   10.72522
      H1   -16.29783  -11.07476   11.40072
       H   -15.60990   -9.98809    7.41228
       O   -14.73496   -9.65998    7.62650
      H1   -14.68467   -9.72164    8.53853
       H   -16.67691   -5.95747    4.73103
       O   -15.83007   -5.44387    4.67651
      H1   -15.89629   -4.95921    5.50474
       H   -15.87389   -6.79853   12.44487
       O   -16.29272   -6.76990   13.31197
      H1   -15.81333   -6.12096   13.80362
       H   -12.91683   -8.37748   13.73279
       O   -12.51480   -7.54147   14.05472
      H1   -12.14251   -7.93877   14.88827
       H   -14.73437   -7.63659    7.64812
       O   -14.03017   -7.03903    7.82153
      H1   -14.30098   -6.25664    7.27454
       H   -14.87951   -3.36124   12.16656
       O   -14.39974   -2.82209   11.50736
      H1   -13.43823   -3.09325   11.58358
       H   -13.59750   -5.76775   14.23228
       O   -13.98344   -4.87506   14.40005
      H1   -13.88571   -4.73950   15.37420
       H   -13.17466  -10.01822   12.30745
       O   -12.86139  -10.00646   13.23630
      H1   -13.42263  -10.77739   13.55483
       H   -13.75514   -4.13388    5.95890
       O   -13.22534   -4.86515    6.20590
      H1   -13.10054   -5.23372    5.32989
       H    -9.49060   -8.43088    9.72377
       O    -9.30499   -7.49742    9.43585
      H1   -10.14320   -7.24586    8.98027
       H    -9.65179   -4.56690    5.53215
       O    -9.95290   -4.32206    6.43932
      H1    -9.19649   -4.39018    6.96884
       H   -17.79984   -2.70779   11.57444
       O   -17.95303   -3.57362   11.13997
      H1   -18.53765   -3.98079   11.76616
       H   -11.54903   -2.60460   10.51340
       O   -11.67477   -3.51172   10.79110
      H1   -10.83140   -3.69497   11.30484
       H   -14.48645   -2.77084    9.09363
       O   -14.40533   -1.89990    8.65235
      H1   -14.54072   -2.17385    7.72719
       H   -12.69690   -8.85793    6.11728
       O   -12.59591   -8.42163    5.25087
      H1   -12.49998   -9.18713    4.62963
       H   -13.21950  -10.57736    7.27868
       O   -12.34574  -10.92824    7.37664
      H1   -11.80513  -10.41167    7.99976
       H   -16.31683   -4.82387   11.49920
       O   -15.84241   -5.45290   10.91882
      H1   -14.84124   -5.34215   11.10521
       H   -16.55161   -5.52336    8.58940
       O   -16.49938   -5.09786    7.72969
      H1   -17.48518   -5.10594    7.49757
       H   -16.84959   -7.04371   10.41196
       O   -17.71720   -7.45191   10.32301
      H1   -17.95423   -7.27806    9.36756

