90
frame 2 | Written by MDAnalysis XYZWriter (release 2.4.3)
       H    16.27080   -0.79844   10.11508
       O    16.72000    0.05986   10.09786
      H1    17.55733   -0.10886    9.67317
       H    14.95954    0.33957   12.44352
       O    14.92096   -0.44336   13.03650
      H1    15.59947   -0.21619   13.68987
       H    16.25897    3.06392   10.34654
       O    16.39068    2.47650   11.09634
      H1    16.84096    1.73452   10.61784
       H    13.88017    0.75695    7.85534
       O    14.75584    1.12345    7.80996
      H1    15.23658    0.63197    8.49620
       H    16.36198   -0.07786    3.03977
       O    16.48846   -1.01516    3.35847
      H1    15.70098   -1.47677    3.03685
       H    14.87691    2.91239    8.32612
       O    15.10567    3.80778    8.64139
      H1    14.77022    4.41138    8.01916
       H    17.54362   -1.03967    6.24050
       O    18.19885   -0.35123    6.42835
      H1    18.61790   -0.53331    7.31993
       H    15.74288   -2.97309    1.67133
       O    16.67330   -3.27262    1.45326
      H1    16.86473   -2.99501    0.49614
       H    14.66105   -4.44554    7.66686
       O    15.26224   -5.01648    8.22895
      H1    14.73185   -4.97767    9.02853
       H    14.98003   -5.10382   12.62716
       O    15.15337   -4.75852   11.76230
      H1    15.94515   -4.25627   11.91243
       H    18.77839    7.11376    5.00662
       O    19.50395    6.53241    5.30660
      H1    19.03132    5.68419    5.18145
       H    14.48177   -1.51224   11.54241
       O    14.16290   -1.80987   10.66955
      H1    14.31878   -2.78072   10.73760
       H    18.07640   -0.50221   11.83576
       O    18.61621    0.06339   12.43413
      H1    19.16860   -0.57701   12.83128
       H    16.66166   -6.91141    5.12619
       O    17.15444   -6.65550    5.88881
      H1    17.52723   -5.78635    5.65740
       H    13.84387    2.68989   13.05621
       O    13.97583    2.02807   12.38079
      H1    14.77904    2.19740   11.89746
       H    16.95178   -4.44592    8.17341
       O    17.85382   -4.08338    8.23068
      H1    18.31638   -4.49571    7.42222
       H    17.09315    2.57561    7.37969
       O    17.14803    2.12002    6.49816
      H1    17.46387    1.25060    6.74917
       H    18.04918   -1.50133    2.63562
       O    19.01451   -1.49772    2.76216
      H1    19.23851   -0.65859    3.15144
       H    16.99506    1.50963   14.66855
       O    17.04609    0.55517   14.63261
      H1    17.51421    0.38593   13.82250
       H    17.20375    4.39647    5.57052
       O    18.00946    4.21487    5.02388
      H1    18.23906    3.32945    5.36087
       H    19.25458    2.93140    2.02363
       O    18.44951    2.40182    2.27786
      H1    18.81946    2.16405    3.12129
       H    15.83151   -0.96059    5.00058
       O    15.51691   -1.10975    5.95479
      H1    15.37154   -0.23036    6.31035
       H    17.65666   -5.81338   10.13179
       O    18.20042   -6.26426   10.80860
      H1    18.91416   -6.67951   10.30364
       H    18.86423    5.94217   10.87542
       O    18.07240    5.68083   11.40975
      H1    18.30458    4.69641   11.57340
       H    12.74974    1.43533    5.39438
       O    13.34894    1.66987    4.63340
      H1    12.92677    1.26484    3.84785
       H    18.00802   -2.58118   12.70979
       O    17.26289   -2.64184   12.10933
      H1    16.61539   -2.64050   12.85765
       H    18.03170    3.20905   13.66026
       O    18.80555    3.01398   13.14070
      H1    18.96269    2.10056   13.38836
       H    18.14612    4.90073    8.44964
       O    18.27445    3.90510    8.44837
      H1    19.03073    3.79898    9.04977
       H    15.13510    1.69056    4.26507
       O    15.96185    1.76410    3.79628
      H1    16.57559    1.93469    4.47451
       H    14.39741   -2.51938    6.19543
       O    13.78176   -3.25916    6.03676
      H1    13.50511   -3.43726    6.92097

