90
frame 3 | Written by MDAnalysis XYZWriter (release 2.4.3)
       H    11.76481  -16.52115   16.01864
       O    11.60201  -16.18938   16.87126
      H1    10.70715  -15.75505   16.81614
       H     9.65153  -16.58608    7.74223
       O     8.72828  -16.56066    7.64937
      H1     8.53013  -16.34485    6.69832
       H    16.94215  -14.41597    7.75495
       O    16.81995  -13.57872    7.28280
      H1    16.81876  -13.85562    6.35135
       H    19.14369  -14.44574   11.48881
       O    19.45972  -13.66186   11.02396
      H1    19.44787  -12.96754   11.73948
       H    16.16911  -18.25955   13.78587
       O    15.34651  -18.55869   14.23188
      H1    14.71140  -18.01332   13.74841
       H    15.14260  -13.84516   13.14474
       O    15.55599  -14.45232   12.53698
      H1    15.95807  -13.82363   11.91299
       H    14.60780  -18.27492    5.57132
       O    14.12743  -19.09972    5.57599
      H1    14.44988  -19.43680    6.36502
       H    15.35733  -15.47253   16.78529
       O    15.05914  -16.36940   16.88344
      H1    14.75655  -16.68812   16.01479
       H    10.54817  -15.61402   11.55830
       O    11.36166  -15.63558   12.05634
      H1    11.96654  -15.22860   11.35186
       H    17.32669  -19.55347   10.09173
       O    17.90501  -19.24940    9.38984
      H1    17.58690  -18.30601    9.39227
       H    18.00591  -16.23205    8.87526
       O    17.42142  -16.62935    9.53220
      H1    16.51811  -16.41996    9.24641
       H    13.20052  -13.68255   10.24292
       O    13.26100  -14.61875   10.56265
      H1    13.76933  -14.51923   11.36873
       H    14.18048  -15.98127    5.75977
       O    14.97463  -16.37184    5.34184
      H1    14.62915  -16.19495    4.44128
       H     8.74504  -18.93269   10.53640
       O     8.22048  -18.36084   11.10802
      H1     7.39647  -18.28778   10.61864
       H    16.40597  -18.70202   11.82961
       O    16.29932  -19.66603   11.69509
      H1    15.52771  -19.71353   11.08668
       H    11.36013  -19.74712    3.56677
       O    12.10655  -19.13610    3.75476
      H1    12.62114  -19.65836    4.38935
       H    16.57980  -19.57602    5.23008
       O    17.07817  -18.78244    5.37890
      H1    16.44406  -18.04306    5.20498
       H    16.58878  -17.35219   16.73503
       O    17.26320  -17.82743   17.19437
      H1    18.01270  -17.76090   16.61980
       H    16.53984  -15.11163   13.98525
       O    16.99070  -15.47798   14.73025
      H1    17.25520  -14.56181   15.05086
       H    14.60430  -15.29107    7.86053
       O    14.90102  -15.70304    8.67735
      H1    14.24106  -15.23034    9.25495
       H    12.75154  -16.55153    7.37713
       O    11.93222  -16.94412    7.72324
      H1    12.22400  -17.13697    8.62114
       H    12.23031  -18.28539   10.82998
       O    11.56234  -17.71644   10.41497
      H1    11.52368  -16.95171   11.05246
       H    19.03741  -16.92790   12.02423
       O    19.49727  -16.55896   11.30658
      H1    18.92039  -16.67357   10.57348
       H    13.11092  -14.07383    7.04242
       O    13.23981  -14.81259    6.47219
      H1    12.38322  -14.94543    6.07186
       H    10.50423  -19.17723    6.50590
       O    11.29211  -19.57822    6.91289
      H1    11.70561  -18.69287    7.17095
       H     8.77679  -16.57986   10.68740
       O     9.16755  -15.76544   10.35033
      H1     9.02198  -15.69240    9.41754
       H    16.76490  -12.38581    9.73573
       O    16.79806  -12.44313   10.71256
      H1    17.52244  -13.06378   10.88181
       H    17.58993  -16.79113   13.87727
       O    17.66288  -17.53182   13.20488
      H1    18.15940  -18.21595   13.70372
       H    18.32041  -16.84298    3.84122
       O    18.47994  -16.06928    4.44496
      H1    18.74284  -16.39034    5.29951
       H    12.25750  -16.63368   13.53393
       O    12.52530  -17.20226   14.25918
      H1    12.14598  -18.01983   13.90788

