90
frame 3 | Written by MDAnalysis XYZWriter (release 2.4.3)
       H   -16.04268    6.05313   -4.34266
       O   -16.67228    5.99561   -3.59301
      H1   -16.13710    5.65778   -2.83807
       H   -12.86908    9.67526   -1.74189
       O   -13.01080    8.73186   -1.80057
      H1   -13.43980    8.65030   -2.65881
       H   -11.31783   10.29200    2.20464
       O   -11.31994   11.24464    2.19328
      H1   -10.45375   11.47676    1.82768
       H   -13.23823    6.74245   -5.09198
       O   -13.21919    5.77851   -5.06828
      H1   -13.28658    5.71623   -6.08133
       H   -12.27197   13.36121   -3.51414
       O   -11.78656   13.48838   -2.69100
      H1   -12.10715   12.77641   -2.14770
       H   -11.15488    8.02089    2.50895
       O   -10.88414    8.51883    1.75658
      H1   -11.55309    8.19318    1.15008
       H    -9.08206   11.21455   -1.83448
       O    -9.73591   11.00632   -1.07735
      H1    -9.51539   10.05723   -1.04052
       H   -12.06554    9.66605   -6.60229
       O   -11.86086    9.28034   -5.75001
      H1   -11.05518    9.76020   -5.46636
       H   -16.63810   10.36533   -2.49806
       O   -15.89371    9.95038   -2.01420
      H1   -15.30046    9.72237   -2.71449
       H    -8.59740   11.60653   -3.73866
       O    -8.31262   12.24103   -3.08136
      H1    -7.51646   11.99677   -2.61672
       H   -14.82652   10.02206    0.42231
       O   -13.97301    9.92514    0.82629
      H1   -14.02669   10.34453    1.69191
       H   -16.19863   12.36056   -1.66912
       O   -16.09806   12.53867   -0.73970
      H1   -15.53537   13.32244   -0.72402
       H   -15.67194    6.17335    1.26006
       O   -14.87635    5.93952    1.74074
      H1   -14.18359    6.21902    1.11720
       H   -10.37683    6.75563   -4.80102
       O    -9.44228    6.56394   -4.74296
      H1    -9.36120    6.27805   -3.78830
       H   -16.48158   11.69515    0.70676
       O   -16.55234   11.41697    1.64128
      H1   -15.77430   11.75568    2.10016
       H    -8.89928    9.48450   -4.92028
       O    -9.49668    9.97820   -4.36025
      H1    -9.55024    9.40206   -3.56103
       H   -11.53364   14.39480   -0.80678
       O   -11.10893   14.44384    0.05938
      H1   -11.15377   15.36713    0.23847
       H    -8.50871    8.14346   -0.57864
       O    -9.45339    8.38750   -0.54550
      H1    -9.69084    8.33990    0.38856
       H   -13.09104    7.69724   -0.38786
       O   -12.95609    7.27862    0.44877
      H1   -13.55912    7.76372    1.02951
       H   -14.92859   11.38963   -6.47078
       O   -14.99607   11.55255   -5.48561
      H1   -15.24209   10.68774   -5.12258
       H   -17.57238    7.58381   -3.32444
       O   -18.33661    8.08025   -3.63641
      H1   -18.23560    9.08759   -3.34615
       H   -13.70915   12.22993    2.45437
       O   -14.17687   11.81515    3.15628
      H1   -13.54552   11.28545    3.59795
       H   -13.48228    9.05230   -4.67917
       O   -14.28638    8.66015   -4.26240
      H1   -14.85170    8.30189   -4.92095
       H   -12.21309    3.66253   -1.44855
       O   -11.94588    4.40694   -2.07376
      H1   -11.89795    3.88848   -2.92012
       H   -13.88921    5.30203   -2.16162
       O   -14.82702    5.00696   -1.94077
      H1   -15.09059    4.26550   -2.56300
       H   -13.99828   14.71068    0.45471
       O   -13.59777   14.15654    1.16758
      H1   -12.65256   14.25513    0.91481
       H   -17.26886   12.68515   -3.70383
       O   -16.47030   13.14802   -3.58430
      H1   -15.89615   12.86511   -4.34803
       H   -10.34828    5.73721   -1.96919
       O    -9.36438    5.82925   -2.08017
      H1    -9.22483    6.70825   -1.78082
       H   -13.01384   10.94051   -0.30642
       O   -12.51832   11.27244   -1.07915
      H1   -11.55671   11.21058   -0.81557
       H   -13.50963   14.09032   -4.79482
       O   -13.07769   13.28107   -5.06407
      H1   -13.76253   12.57898   -5.18680

