90
frame 3 | Written by MDAnalysis XYZWriter (release 2.4.3)
       H     7.03476    4.82419  -19.22354
       O     6.15427    5.18511  -19.03640
      H1     5.83339    4.65579  -18.29429
       H     7.31174   11.67865  -16.83418
       O     7.42862   10.90061  -17.39159
      H1     6.45978   10.94857  -17.58973
       H     6.67998    9.18590  -15.14278
       O     6.88079   10.04364  -14.79585
      H1     7.03025   10.50052  -15.60330
       H    15.64077    5.14476  -20.02624
       O    14.87805    5.41565  -19.51375
      H1    15.28889    5.75575  -18.73051
       H    12.59066    4.71381  -17.47428
       O    11.79813    5.27056  -17.17586
      H1    11.07232    4.59575  -17.21516
       H    12.35630    8.61229  -13.35737
       O    11.55738    8.32517  -13.78506
      H1    11.76441    7.40136  -14.07659
       H     6.31898    2.45098  -14.61874
       O     6.57601    1.58881  -14.34883
      H1     5.86404    1.44494  -13.68366
       H     7.84409    0.46559  -14.58647
       O     8.47837   -0.19800  -14.93903
      H1     9.33840    0.29930  -14.82581
       H    10.26713    9.34728  -17.26983
       O    10.51126    9.22096  -18.18750
      H1    10.38575   10.18015  -18.48695
       H    13.74248    3.46244  -18.90804
       O    13.51315    3.09267  -18.04922
      H1    13.16322    2.23061  -18.22623
       H     8.94270    6.15096  -17.47619
       O     8.63223    7.11676  -17.39512
      H1     9.21115    7.56437  -18.06814
       H     4.24498    1.57670  -18.67549
       O     3.83115    2.32187  -18.17784
      H1     3.67716    1.88981  -17.30441
       H    15.20335    4.96907  -13.50367
       O    14.85519    5.86922  -13.56342
      H1    13.92865    5.82287  -13.87806
       H     9.25680    3.30993  -16.23232
       O     9.43223    4.06583  -16.81072
      H1     8.91667    3.74974  -17.56912
       H    11.99293    5.44386  -15.38327
       O    12.27673    5.61388  -14.47762
      H1    11.81595    4.91274  -13.93962
       H     4.52602    7.22226  -16.60638
       O     3.78845    6.60636  -16.53018
      H1     3.26649    6.94154  -15.79279
       H     4.44410    5.90220  -19.54388
       O     3.53400    6.20873  -19.70500
      H1     3.79934    7.18785  -19.63692
       H     8.66342    7.77353  -12.14933
       O     9.51272    7.36454  -12.02156
      H1    10.03721    7.92327  -12.53314
       H     6.66646    6.84463  -15.54279
       O     6.26465    7.63409  -16.00137
      H1     6.87932    7.65252  -16.77494
       H     8.00897    5.19517  -15.42443
       O     7.50406    5.61271  -14.73880
      H1     8.15923    6.03068  -14.16839
       H     5.49714    4.80605  -15.69585
       O     5.41792    4.08353  -16.29687
      H1     4.66402    4.28167  -16.80895
       H    10.97168    9.31479  -15.04415
       O    10.34420    9.96908  -15.48909
      H1     9.45310    9.72754  -15.17528
       H    14.94947    6.96689  -16.32882
       O    14.81900    6.08968  -16.67241
      H1    14.63624    5.59532  -15.89049
       H     6.03973    8.22529  -12.19922
       O     6.84671    8.69827  -12.31219
      H1     6.69489    9.36698  -12.99450
       H    13.01909    0.23884  -18.12123
       O    12.24866    0.79562  -17.85314
      H1    12.29296    0.74697  -16.89384
       H    12.04434    8.31278  -18.29532
       O    12.97765    8.24315  -18.12816
      H1    13.01945    7.53459  -17.50899
       H    10.44855    4.85975  -12.44250
       O    10.74846    4.00587  -12.78494
      H1    11.15591    3.62162  -11.96052
       H    11.56097    0.77702  -14.97180
       O    10.84977    1.40455  -15.15697
      H1    10.96568    2.12513  -14.47843
       H     6.91701    2.50367  -17.01758
       O     7.63459    1.85573  -16.89109
      H1     7.29168    1.30308  -16.15778
       H    12.19580   10.74300  -17.18854
       O    13.02297   11.21012  -17.34639
      H1    13.09884   11.15507  -18.30693

