90
frame 3 | Written by MDAnalysis XYZWriter (release 2.4.3)
       H    -5.78126  -10.28827   18.93936
       O    -6.49774  -10.62519   18.33836
      H1    -5.91569  -11.36211   17.93492
       H    -1.20650   -8.36511   16.06140
       O    -1.37680   -7.43105   16.35605
      H1    -1.20123   -6.91483   15.55143
       H    -8.56520  -10.20537   14.32236
       O    -8.12658   -9.35124   14.31246
      H1    -7.32706   -9.66539   13.80337
       H    -8.63971   -7.59691   12.50893
       O    -7.89787   -7.69632   11.88236
      H1    -8.35251   -7.45442   11.04693
       H    -7.47316   -5.00586   15.54038
       O    -6.77157   -4.47868   15.10618
      H1    -7.19862   -3.63642   14.87819
       H    -9.15191   -7.76557   14.15163
       O    -9.65035   -7.01771   13.78131
      H1   -10.52819   -7.42891   13.59347
       H    -6.09411   -9.44888   12.21717
       O    -5.82040   -9.94864   12.94086
      H1    -5.01744   -9.56364   13.33635
       H    -3.44403   -8.39419   16.44131
       O    -3.99314   -9.15975   16.70984
      H1    -4.89568   -8.84642   16.40979
       H    -4.46415  -13.11727   16.13530
       O    -3.85429  -13.23056   15.37866
      H1    -4.56056  -13.31918   14.67710
       H    -7.78563   -5.21612   17.78309
       O    -7.47853   -4.91517   18.65064
      H1    -8.30889   -4.71502   19.07381
       H    -5.48867   -6.84133   19.10834
       O    -5.96200   -6.95429   19.92918
      H1    -6.89788   -6.91974   19.69623
       H    -8.01088   -6.79454   16.25036
       O    -8.76911   -6.18464   16.32240
      H1    -9.22321   -6.36351   15.40803
       H    -6.73302   -9.12290   17.28981
       O    -6.73825   -8.42505   16.56970
      H1    -7.18912   -8.88343   15.83328
       H    -5.44129  -13.51426   17.44864
       O    -4.99963  -12.71499   17.84447
      H1    -4.24189  -13.03130   18.34629
       H   -10.47701   -7.17466   16.82203
       O   -11.22878   -7.72264   16.82993
      H1   -10.77972   -8.45965   17.24475
       H    -6.12892   -3.51416   18.12434
       O    -5.84349   -2.61791   17.89573
      H1    -4.88648   -2.61360   17.84085
       H    -6.18583   -5.32352   13.29351
       O    -6.02711   -5.44788   12.35050
      H1    -6.63753   -6.09521   11.99833
       H   -12.91683   -8.37748   13.73279
       O   -12.51480   -7.54147   14.05472
      H1   -12.14251   -7.93877   14.88827
       H   -10.04116  -13.15125   16.27210
       O   -10.49380  -13.27766   17.13548
      H1   -10.64845  -12.37857   17.49579
       H    -3.06651   -9.61244   19.43760
       O    -3.70157  -10.36908   19.36637
      H1    -3.84815  -10.32910   18.38817
       H    -9.04550  -14.75041   19.35951
       O    -9.21829  -13.80717   19.45480
      H1    -9.51664  -13.57852   18.58817
       H    -2.28172  -12.22163   14.99077
       O    -1.54960  -11.83521   14.43960
      H1    -0.76323  -12.32827   14.55374
       H   -10.04647  -11.95160   14.56456
       O    -9.09496  -11.88060   14.49831
      H1    -8.78467  -12.79671   14.22372
       H    -2.73344   -8.22776   12.84897
       O    -3.43258   -8.57142   13.44635
      H1    -3.04565   -8.41462   14.35020
       H    -3.42641   -5.66197   19.35096
       O    -3.75689   -6.12945   18.50914
      H1    -3.23283   -6.98216   18.56471
       H    -9.48449   -9.84742   18.20255
       O   -10.31760  -10.08901   17.82128
      H1   -10.87301  -10.30480   18.60575
       H    -3.27731   -5.30572   13.95232
       O    -3.23830   -5.40910   12.97703
      H1    -4.23721   -5.36165   12.72316
       H    -6.83684  -15.67470   16.59988
       O    -6.35083  -15.08532   17.15514
      H1    -6.18775  -15.68739   17.93243
       H   -10.63364   -4.09451   18.91524
       O   -10.65516   -4.96890   18.56174
      H1   -10.09802   -4.85099   17.80424
       H    -4.11685   -5.67963   16.65133
       O    -4.12160   -5.22580   15.74162
      H1    -5.01246   -4.85697   15.63192

