90
frame 3 | Written by MDAnalysis XYZWriter (release 2.4.3)
       H    12.26421   -7.57239    2.72786
       O    12.73738   -7.98237    3.48707
      H1    13.49249   -8.35151    3.07993
       H     9.15860   -8.68201    9.73880
       O     9.57333   -7.89375    9.34662
      H1    10.18378   -7.64832   10.10363
       H    12.67341    0.99919   10.65489
       O    12.02037    0.66187   10.01978
      H1    11.78546   -0.20288   10.25181
       H    10.45271  -10.24831    9.68562
       O    11.04768  -10.51987    8.91272
      H1    10.36293  -10.76339    8.26634
       H    10.47257   -1.01289    5.76324
       O    10.11558   -0.41125    6.39071
      H1     9.37442   -0.08674    5.89296
       H     8.53847   -4.96657    3.59983
       O     7.56866   -5.06039    3.70136
      H1     7.73679   -5.75142    4.36582
       H    13.69064   -5.57699    4.47005
       O    13.08242   -5.99610    5.09854
      H1    12.63811   -6.55782    4.44385
       H     6.62293   -2.76040    5.77573
       O     7.49189   -2.68509    5.26448
      H1     7.55509   -3.58152    4.84185
       H    10.24668   -2.51712   10.82465
       O    10.85716   -2.23166   10.15215
      H1    11.68285   -2.19336   10.60863
       H    12.24854   -7.65922   10.50430
       O    11.58157   -7.61981   11.21382
      H1    11.68333   -6.72616   11.60728
       H    14.55131   -4.52681    7.80216
       O    15.19569   -5.18295    8.20139
      H1    14.93804   -5.13042    9.11331
       H    10.00037   -7.92115    5.65622
       O     9.78905   -8.88098    5.72953
      H1    10.73341   -9.10782    5.88870
       H    13.65256   -1.32060   11.90764
       O    13.57276   -1.78692   11.04309
      H1    14.06347   -2.57022   11.24176
       H    16.87242   -7.01285    8.09065
       O    17.61588   -6.76818    7.49054
      H1    17.15418   -6.52740    6.68110
       H    16.87440   -4.41602    9.08809
       O    17.81429   -4.01705    9.15180
      H1    18.23085   -4.59551    8.43605
       H    12.23379   -9.37773    7.17384
       O    12.50673   -9.34639    6.24218
      H1    12.97548   -8.49728    6.26985
       H     8.45497  -11.28653    7.11943
       O     8.64473  -10.52612    7.72463
      H1     8.85156   -9.79025    7.12904
       H     7.34056   -5.74228    8.63202
       O     7.55137   -6.59802    8.25379
      H1     8.33402   -7.00192    8.64363
       H     9.60685   -1.92434    7.15880
       O     9.24855   -2.83084    7.23691
      H1     8.73789   -3.06327    6.41341
       H    15.29534   -8.51739    8.41104
       O    15.51618   -7.77986    8.94425
      H1    14.92126   -7.09167    8.50132
       H     7.15623   -3.57121    9.53365
       O     7.91028   -4.12535    9.34199
      H1     8.37095   -3.70612    8.57687
       H    12.28063   -6.97694    8.36184
       O    12.40979   -7.89476    8.63376
      H1    11.50257   -8.17991    8.69762
       H    12.40786   -1.83359    4.54469
       O    11.90912   -2.60266    4.94455
      H1    12.48896   -2.86857    5.73744
       H    11.00625   -4.36952    7.90207
       O    11.49918   -5.19340    7.75990
      H1    11.69485   -5.12681    6.81152
       H     8.56635   -6.05532    6.96498
       O     8.91663   -6.02019    6.01286
      H1     9.82356   -5.70098    6.16727
       H     9.79904   -5.07829   12.69802
       O    10.71367   -5.08627   12.35922
      H1    10.91311   -4.14223   12.41673
       H    14.93273   -5.36047    2.57037
       O    14.09803   -4.80925    2.50335
      H1    13.43071   -5.43979    2.20908
       H    15.31745  -10.73939    7.52899
       O    14.41991  -10.52878    7.67220
      H1    14.01758  -10.23288    6.82560
       H    10.77078   -4.86119    3.12163
       O    10.11467   -4.48956    3.74912
      H1    10.70638   -3.79602    4.07937
       H    14.15555   -2.03599    7.05594
       O    13.48032   -2.73406    7.16159
      H1    13.11983   -2.50298    7.97932

