90
frame 3 | Written by MDAnalysis XYZWriter (release 2.4.3)
       H    18.83868   -9.64766   16.85752
       O    19.67873  -10.02723   17.30020
      H1    20.18607  -10.43551   16.64738
       H    11.34344   -3.29872   14.60613
       O    11.39025   -3.25302   15.60976
      H1    11.82323   -4.05183   15.96131
       H    18.54203   -8.91333   11.59349
       O    19.50238   -9.06635   11.80838
      H1    19.99815   -8.41862   11.29116
       H    15.14260  -13.84516   13.14474
       O    15.55599  -14.45232   12.53698
      H1    15.95807  -13.82363   11.91299
       H    15.27684   -9.52918   18.84641
       O    15.03781   -9.35087   17.95319
      H1    15.82905   -8.94297   17.58048
       H    14.12602  -11.69824   13.09081
       O    14.89601  -11.96746   13.51818
      H1    14.45097  -12.34467   14.33965
       H     9.10484   -6.18595   17.13268
       O     9.75612   -5.57397   17.49441
      H1     9.25386   -5.47654   18.37764
       H    12.24854   -7.65922   10.50430
       O    11.58157   -7.61981   11.21382
      H1    11.68333   -6.72616   11.60728
       H    12.02459  -13.91524   14.69746
       O    12.90311  -13.56853   14.74145
      H1    13.05044  -13.69123   15.70915
       H    15.89625   -4.94174   12.46039
       O    16.03944   -4.50382   11.62478
      H1    16.85887   -3.97232   11.76692
       H     9.59533   -9.09405   18.58030
       O     9.00638   -8.60830   19.23657
      H1     9.18818   -9.08170   20.05737
       H    18.49402   -6.81269   13.57184
       O    17.59368   -7.11052   13.72460
      H1    17.39320   -7.57572   12.91986
       H    10.16996  -11.19165   15.86951
       O     9.51802  -11.48126   15.21465
      H1     8.74198  -11.59481   15.84388
       H    13.07779   -3.49389   18.75726
       O    12.38599   -4.20149   18.80728
      H1    12.76546   -4.82391   19.49301
       H    17.39065   -8.30897   15.70967
       O    17.72587   -8.29008   16.60768
      H1    18.45747   -7.67603   16.59574
       H    16.25187  -10.55063   13.82373
       O    17.12686  -10.35491   14.08628
      H1    17.56921  -10.71568   13.31948
       H    11.31355   -8.99496   12.46984
       O    11.30416   -9.93160   12.73660
      H1    11.39053   -9.82941   13.69169
       H    12.30237   -5.07475   17.57298
       O    12.30459   -5.45725   16.65122
      H1    11.34209   -5.59388   16.63948
       H    15.19472   -3.59516   14.83910
       O    16.02347   -3.96607   14.43092
      H1    16.65710   -3.23813   14.51336
       H    16.43536  -10.17960   11.13086
       O    16.89893   -9.31989   11.24357
      H1    16.44304   -8.66375   10.71427
       H    12.65699   -7.07165   17.03874
       O    12.70181   -7.88189   17.64532
      H1    13.57620   -8.23487   17.30334
       H     9.42906  -10.48838   11.64650
       O     9.05756  -10.01403   10.85800
      H1     8.30651  -10.56930   10.70528
       H    18.52553  -12.82755   15.11837
       O    17.59275  -12.99215   15.39737
      H1    17.20323  -12.10798   15.22870
       H    14.07253  -11.10544   10.78188
       O    13.37144  -11.44785   11.42148
      H1    12.75538  -10.73583   11.60803
       H    14.76359   -8.65155   15.06083
       O    13.80356   -8.48959   15.01508
      H1    13.76664   -7.83386   14.29702
       H    11.32473   -9.01622   17.35816
       O    10.83445   -9.86541   17.47442
      H1    11.60859  -10.27999   17.93444
       H     9.20749   -9.36238   14.88005
       O     9.38298   -8.46364   14.63908
      H1    10.41191   -8.31779   14.71858
       H     9.79904   -5.07829   12.69802
       O    10.71367   -5.08627   12.35922
      H1    10.91311   -4.14223   12.41673
       H    15.78962   -6.39445   19.08894
       O    16.62580   -6.38271   18.65042
      H1    16.37580   -7.02620   17.93952
       H    16.88710   -3.96937   16.65164
       O    17.31787   -3.18994   17.09828
      H1    17.15391   -3.51996   17.97896

