90
frame 3 | Written by MDAnalysis XYZWriter (release 2.4.3)
       H     6.45687   -4.32128   -4.47177
       O     6.34349   -5.30126   -4.44302
      H1     5.47209   -5.40268   -4.89884
       H     7.88790    1.37242   -3.23024
       O     7.12937    1.96386   -3.07407
      H1     6.45893    1.36712   -3.48208
       H     5.20483   -0.70590   -5.90760
       O     5.43016   -0.29835   -6.71765
      H1     6.11390   -0.91377   -7.04313
       H     6.57788   -4.10587    2.45212
       O     5.84858   -3.96624    1.82512
      H1     6.18847   -3.38532    1.12827
       H     9.78944   -4.99221   -4.80739
       O     9.28682   -5.81054   -4.61614
      H1     8.39137   -5.42413   -4.51573
       H    12.11725   -5.60012   -1.16672
       O    12.35201   -4.59654   -1.11370
      H1    13.25301   -4.67856   -1.49684
       H     8.45722   -5.18353   -6.83111
       O     8.48094   -4.57283   -7.55024
      H1     9.26432   -3.99759   -7.36330
       H     7.52523   -2.34287   -6.02158
       O     7.12371   -2.25174   -6.86524
      H1     7.14869   -3.19096   -7.18910
       H    12.90995   -1.66512   -1.89013
       O    13.56141   -1.43556   -1.25172
      H1    14.27411   -1.10029   -1.82941
       H     9.90252   -6.99296   -1.15041
       O     9.48929   -6.57952   -0.40145
      H1     8.56317   -6.90412   -0.52076
       H     3.66525   -4.26552   -4.59042
       O     3.95825   -4.33389   -5.52228
      H1     3.15477   -4.77305   -5.91642
       H     6.56505   -6.65567    0.74964
       O     6.39137   -6.15833   -0.08577
      H1     6.01244   -5.32577    0.20564
       H     6.29411    1.05376   -0.60207
       O     5.85600    1.87997   -0.75826
      H1     6.34269    2.08759   -1.63075
       H     5.84393   -6.12073   -3.02526
       O     5.20371   -6.53700   -2.37167
      H1     5.68532   -6.36830   -1.54679
       H    10.13641    1.12498    0.10427
       O     9.29170    1.26292   -0.33588
      H1     9.00628    2.13603   -0.04964
       H     5.15477   -0.80223   -3.76663
       O     5.14763    0.15946   -3.96638
      H1     4.13996    0.27582   -4.12150
       H     9.65928   -0.63061    0.84938
       O    10.14379   -1.40070    1.16864
      H1    10.85850   -0.99536    1.74725
       H    10.78154    1.92783   -6.14152
       O     9.97729    1.60143   -5.73461
      H1     9.79066    0.80631   -6.32490
       H     8.98941   -4.26091   -1.28226
       O     8.51973   -3.44842   -1.55075
      H1     9.34502   -2.88373   -1.52062
       H    10.95904   -6.73587   -3.86334
       O    11.76165   -7.15696   -4.19203
      H1    12.19120   -7.42573   -3.32019
       H    10.06820   -1.31742   -3.17797
       O    10.59272   -1.91974   -2.58603
      H1    11.25116   -2.18284   -3.30015
       H     6.35718   -2.00173   -0.42153
       O     6.13080   -2.89631   -0.73147
      H1     7.04324   -3.30285   -0.89306
       H     8.56180   -1.41970   -4.33203
       O     8.22742   -2.31964   -4.37550
      H1     8.34226   -2.64576   -3.47630
       H    12.75598   -1.46679   -4.51750
       O    12.30028   -2.33927   -4.54805
      H1    12.05437   -2.36103   -5.48192
       H    11.21672   -2.97399   -7.48563
       O    10.32738   -2.78663   -7.08679
      H1    10.20329   -1.83033   -7.22967
       H    12.71180    0.82794   -4.73996
       O    12.57797    0.35499   -3.92417
      H1    12.24111    1.04974   -3.32017
       H     3.54381   -0.48160   -0.13795
       O     3.40788   -0.97771   -1.05586
      H1     4.00708   -0.45785   -1.59618
       H     9.93376    0.26198   -2.73700
       O     9.28117    0.26584   -3.46080
      H1     9.80815    0.55291   -4.27124
       H     7.16971   -0.09102    1.04733
       O     7.16195   -0.33208    0.13298
      H1     7.97589    0.21001   -0.09712
       H     9.55870   -0.34305   -8.32223
       O     9.13690   -0.36692   -7.41259
      H1     8.69742   -1.23156   -7.48818

