90
frame 3 | Written by MDAnalysis XYZWriter (release 2.4.3)
       H     4.38807  -10.55305   11.52631
       O     3.59387  -10.06150   11.58942
      H1     2.93161  -10.67338   11.93595
       H     1.13727   -9.98016    9.75968
       O     0.67777   -9.24101   10.18705
      H1     0.02009   -9.69293   10.67293
       H     2.16259  -14.07882    7.34891
       O     1.21004  -14.02975    7.30778
      H1     1.03151  -14.26128    6.36506
       H    -1.40730  -15.46491    8.22223
       O    -1.01586  -15.80475    7.41158
      H1    -0.19487  -15.27379    7.51393
       H     4.22990  -11.76688    7.53130
       O     4.52513  -11.97867    8.43432
      H1     4.33953  -11.08552    8.79929
       H     3.12444  -17.03213   12.68857
       O     2.72692  -17.91924   12.81622
      H1     2.23165  -18.03955   11.97712
       H     7.01571  -10.23890    7.39336
       O     6.10643  -10.37037    6.92011
      H1     6.44997  -10.94201    6.21260
       H     4.79837   -9.34745    6.12236
       O     4.02677   -8.91789    5.78968
      H1     3.36389   -9.55541    5.60789
       H     5.68396  -11.64407   13.22301
       O     5.73320  -11.60314   12.28735
      H1     5.18791  -12.35343   11.98681
       H     6.14566   -7.69996    9.04489
       O     5.97094   -8.49125    9.58945
      H1     5.21687   -8.19117   10.11769
       H     4.49675  -17.43891    7.54190
       O     3.96843  -16.95577    8.20734
      H1     4.56242  -17.12207    8.98152
       H    -1.11923  -16.49519   10.04508
       O    -0.32998  -15.97062   10.19204
      H1     0.31806  -16.59456   10.61146
       H     7.30718  -13.02801    6.48661
       O     7.83399  -12.32675    6.03603
      H1     8.11131  -12.68083    5.17041
       H     2.24529  -12.08532   14.12580
       O     2.95841  -12.10001   14.75725
      H1     2.95141  -12.94635   15.13264
       H     1.36709   -6.99946   12.45402
       O     2.07810   -7.06903   11.83683
      H1     2.00917   -7.85193   11.29814
       H     3.65238   -7.18646   13.50952
       O     4.30112   -7.84254   13.89543
      H1     4.12671   -8.60231   13.30052
       H     5.00978  -13.82936   10.69271
       O     4.19992  -13.39994   11.01451
      H1     3.93371  -12.86841   10.19406
       H     7.47808  -14.49477   10.91101
       O     6.59553  -14.76619   11.12341
      H1     6.80475  -14.94416   12.06636
       H     2.26484  -12.66401   12.38627
       O     1.60041  -12.01419   12.32456
      H1     1.00565  -12.52184   11.68751
       H     8.71441  -12.08029   13.33157
       O     8.42168  -12.52215   12.50287
      H1     7.45393  -12.37344   12.62672
       H     3.90109  -15.57714    7.35978
       O     3.98997  -14.81389    6.75274
      H1     4.98406  -14.85474    6.63239
       H     9.42906  -10.48838   11.64650
       O     9.05756  -10.01403   10.85800
      H1     8.30651  -10.56930   10.70528
       H    -0.44513  -12.42342    9.23777
       O     0.20271  -11.85882    8.75180
      H1     0.42174  -12.42324    7.99630
       H     5.51650  -17.94743   10.79962
       O     5.84758  -17.35619   10.13890
      H1     5.84953  -16.52223   10.58838
       H     4.78470  -15.60857   12.97274
       O     3.84621  -15.40768   12.98177
      H1     3.61699  -14.99326   12.14140
       H     4.60179  -11.85495   15.06658
       O     5.60011  -11.87542   14.91660
      H1     5.96766  -11.16584   15.45163
       H     6.94733  -14.70228    8.04788
       O     6.40669  -14.08470    7.51833
      H1     5.87488  -13.61486    8.17374
       H    -1.44466  -14.85115   12.92853
       O    -0.51237  -14.59283   12.58729
      H1    -0.42097  -15.22442   11.85270
       H     6.79073  -15.46134   14.60201
       O     6.62983  -15.73588   13.66113
      H1     7.24626  -16.51627   13.76303
       H     3.42351   -9.67822    9.82965
       O     3.49005   -9.52081    8.85623
      H1     4.40940   -9.33648    8.72188

