90
frame 3 | Written by MDAnalysis XYZWriter (release 2.4.3)
       H    -8.39149   15.71229   17.93823
       O    -9.03667   16.19724   18.37979
      H1    -9.71456   16.34398   17.69657
       H    -8.61487   15.64007   14.99366
       O    -9.36986   16.25342   14.90998
      H1    -9.82555   15.92394   14.09963
       H    -3.15553   11.43472   12.29017
       O    -2.94712   11.99411   13.02761
      H1    -3.04680   12.94773   12.73099
       H    -6.99754   15.90933   11.79040
       O    -6.34780   15.18048   12.05638
      H1    -5.65762   15.75528   12.48383
       H   -11.23711   15.80202    9.39522
       O   -10.32913   15.53513    9.27026
      H1   -10.44132   14.55136    9.28262
       H    -8.06697   12.16201   12.02550
       O    -8.61346   12.72130   12.65089
      H1    -9.21921   12.04118   13.07053
       H    -5.72764   10.94478   15.77829
       O    -5.76435    9.99271   15.92681
      H1    -6.26624    9.68418   15.16188
       H   -10.14557   10.10812   14.54915
       O    -9.93227   10.45628   13.64232
      H1    -9.31647    9.74865   13.33491
       H    -7.91852   10.42653   18.23329
       O    -7.89500    9.66014   17.54090
      H1    -7.10792    9.91173   16.98757
       H    -8.77648   19.03096   17.87252
       O    -8.39182   18.72215   17.05152
      H1    -8.25161   17.76375   17.11625
       H    -6.36487   15.24651    9.12391
       O    -6.46275   14.87412    8.21290
      H1    -5.98060   15.56456    7.68758
       H    -5.97554   16.37342   18.04899
       O    -6.26778   15.82246   17.31955
      H1    -5.74372   16.30774   16.61316
       H    -6.96824   14.66796   13.66941
       O    -7.36381   14.46151   14.53860
      H1    -7.93405   13.75750   14.24708
       H    -9.71433   14.21305   11.99413
       O   -10.36178   14.79102   12.37771
      H1   -10.74686   15.27240   11.59822
       H    -7.65078   11.20062    9.94176
       O    -7.24890   11.16928   10.80407
      H1    -6.47195   11.79561   10.78165
       H    -4.24163   14.13435   14.22833
       O    -4.04187   14.92793   13.68903
      H1    -4.08469   15.60390   14.36597
       H   -12.04463   16.25006   16.41889
       O   -11.31312   16.91946   16.55424
      H1   -10.59471   16.58629   15.94754
       H   -10.86620   12.45709   11.88680
       O   -11.58313   12.13497   11.34289
      H1   -11.39322   11.17622   11.29712
       H    -5.98450    9.73545   11.13500
       O    -5.39706    8.98591   11.10732
      H1    -4.92412    9.10829   10.27473
       H    -4.23840   13.24275   10.08526
       O    -4.98189   12.85231   10.59555
      H1    -5.27217   13.59822   11.12237
       H    -4.96286   13.50127   16.26516
       O    -5.13770   12.86534   15.54780
      H1    -5.94311   13.26507   15.12539
       H    -8.21738   17.25752   11.66781
       O    -7.99706   16.86116   10.80810
      H1    -8.86573   16.55376   10.54958
       H    -2.26871   13.83506   10.32742
       O    -2.57924   14.67074    9.93386
      H1    -1.97979   14.84198    9.19329
       H    -4.80797   14.90842   17.52018
       O    -4.03720   14.32170   17.61395
      H1    -4.46106   13.71050   18.29425
       H    -1.89820   15.11432   11.53065
       O    -1.78315   14.89254   12.47930
      H1    -2.67489   14.99761   12.79702
       H    -7.00435   18.41739   13.84460
       O    -7.57573   17.77773   13.33835
      H1    -8.15867   17.47766   14.04664
       H    -2.29220   11.72036   14.91280
       O    -2.11525   11.48914   15.79530
      H1    -1.27222   11.04494   15.81565
       H    -6.26835   17.68965   10.01504
       O    -5.68423   18.44831    9.81023
      H1    -4.83752   17.99607    9.88262
       H    -3.49724   17.04746   16.64665
       O    -3.96894   16.81482   15.79212
      H1    -4.11475   17.66468   15.37052
       H    -9.74819   14.42469   18.75690
       O    -9.85732   13.42741   18.96448
      H1   -10.69504   13.21338   18.60965

