90
frame 0 | Written by MDAnalysis XYZWriter (release 2.4.3)
       H    17.95812  -13.57039    7.75370
       O    17.02763  -13.61472    7.47035
      H1    17.05637  -13.83844    6.53031
       H    18.03749  -14.24182   12.22954
       O    17.86156  -13.35582   11.84581
      H1    17.55347  -12.90965   12.62528
       H    17.83141  -10.34292   11.15641
       O    18.62095   -9.96438   11.62415
      H1    18.93081   -9.30702   11.00534
       H    12.89465  -10.83061   10.82658
       O    12.26272  -11.53168   10.91588
      H1    11.46912  -11.12430   10.47486
       H    12.67181   -5.51843    5.13863
       O    12.53446   -6.28322    5.70872
      H1    11.60738   -6.41258    5.60799
       H    13.71599  -12.01125   13.44281
       O    14.60044  -12.26877   13.16933
      H1    14.92462  -12.73835   13.89623
       H    12.93656  -12.69991    9.70009
       O    13.21299  -13.44334    9.14867
      H1    14.18782  -13.39463    9.36497
       H    15.19771   -6.22482    7.00156
       O    14.99669   -5.55206    7.65627
      H1    14.23374   -5.93079    8.13916
       H    16.96093   -5.27256   13.03648
       O    16.71322   -4.72357   12.28060
      H1    17.06617   -3.87155   12.63125
       H    16.96034   -7.29372   12.56590
       O    16.90153   -7.46942   13.51514
      H1    16.00697   -7.72893   13.52787
       H    17.72377  -10.68046    8.40934
       O    17.45683   -9.98085    7.76363
      H1    17.32908   -9.23892    8.43317
       H    16.35415  -11.71930   13.71839
       O    17.29089  -11.56304   13.83051
      H1    17.54657  -10.88970   13.21881
       H    15.55636   -8.01088    5.12247
       O    15.80721   -7.25252    5.65724
      H1    16.72532   -7.27528    5.87824
       H    17.22321   -5.01610    7.10391
       O    18.11342   -5.36028    7.48029
      H1    18.61069   -5.28522    6.64039
       H    18.83823  -12.49715   10.32038
       O    18.83883  -12.44345    9.32817
      H1    19.69851  -11.93641    9.20119
       H    18.88715  -10.16471    3.68423
       O    19.57898  -10.23921    3.00590
      H1    19.12906   -9.78596    2.26488
       H    12.31405   -8.81982    7.63575
       O    11.59872   -8.61276    6.99335
      H1    12.15457   -8.06723    6.42649
       H    15.92781  -15.22670    8.01028
       O    15.52059  -15.97075    8.51964
      H1    14.66925  -16.16583    8.13495
       H    16.07154   -6.49927    8.90237
       O    16.29627   -7.41691    9.10354
      H1    16.79558   -7.31944    9.88119
       H    17.57139   -7.87088    3.59662
       O    17.96112   -7.22661    4.12897
      H1    18.27260   -6.58020    3.47027
       H    17.70046   -5.69938   11.22262
       O    18.15024   -6.54990   10.97602
      H1    18.49038   -6.33504   10.09726
       H    16.01190  -11.52878   10.47499
       O    16.16831  -10.53818   10.43393
      H1    15.36479  -10.25132   10.91783
       H    13.75446   -9.19698    9.94498
       O    13.63236   -9.27550   10.89976
      H1    13.49600   -8.34076   11.22541
       H    16.31546  -13.29816    9.09209
       O    15.83287  -13.13028    9.94757
      H1    16.30559  -13.62803   10.61517
       H    17.20394  -10.32562    6.14471
       O    17.38326  -10.29839    5.16572
      H1    17.21006  -11.23369    4.92905
       H    14.18950  -10.83888    4.93122
       O    14.65183  -10.23368    5.50780
      H1    15.54337  -10.26523    5.15870
       H    14.95818   -4.90121    4.89218
       O    14.83735   -5.27715    3.94932
      H1    15.16936   -6.17743    4.17367
       H    17.38852  -13.01760    3.44656
       O    16.61965  -12.73472    4.04603
      H1    15.92879  -13.16913    3.52360
       H    14.16575   -9.44473    7.20056
       O    14.13777   -9.14310    8.08924
      H1    14.96919   -8.71980    8.20077
       H    15.87140   -3.12138    6.16543
       O    14.98296   -3.46887    6.09040
      H1    14.97508   -4.01609    6.86180

