90
frame 3 | Written by MDAnalysis XYZWriter (release 2.4.3)
       H    -2.39029    4.02717    4.54352
       O    -2.92436    4.32171    3.78303
      H1    -3.67843    4.73859    4.33351
       H    -0.47494   -1.06102   -0.19520
       O    -1.18056   -1.53872    0.36963
      H1    -1.87455   -0.87018    0.34090
       H    -6.63943    2.37438   -6.06264
       O    -6.72375    3.30790   -5.85225
      H1    -6.16118    3.66818   -6.54792
       H    -5.61150    7.56961   -1.99046
       O    -6.42535    7.62443   -1.42948
      H1    -5.91634    8.03119   -0.63751
       H    -1.63414    3.83927   -3.94937
       O    -0.76997    3.97998   -4.33309
      H1    -0.50241    4.81975   -3.89220
       H    -3.98856    4.07086   -3.41147
       O    -3.38999    4.84235   -3.43025
      H1    -3.25983    5.02119   -4.38624
       H    -3.70266   -0.66241   -3.42006
       O    -4.11445   -0.63369   -2.53265
      H1    -3.48931   -0.10569   -2.00328
       H    -5.89936    3.73357   -2.84084
       O    -5.54907    2.97127   -3.37274
      H1    -5.81499    3.10658   -4.31943
       H    -1.15594    5.91658   -2.20934
       O    -0.31496    6.23584   -2.65832
      H1     0.25536    5.76694   -2.04118
       H    -7.25032    4.54212   -1.18971
       O    -6.25008    4.76982   -1.38551
      H1    -6.26413    5.77539   -1.30852
       H    -5.83364    6.16497    4.52744
       O    -5.42794    5.30439    4.47973
      H1    -5.58867    5.12534    3.52387
       H    -5.64547    8.39238    1.79289
       O    -6.18535    8.70408    1.07331
      H1    -6.79526    7.96928    0.95875
       H    -6.90490    2.42050    3.71817
       O    -7.83933    2.50982    3.52789
      H1    -8.06392    1.65459    4.00214
       H    -0.45964    9.15703   -0.79806
       O    -1.25124    8.55440   -0.74147
      H1    -1.17866    8.05392   -1.55132
       H    -1.73297    5.41900    0.47943
       O    -2.33211    5.29436   -0.31018
      H1    -2.89476    6.05664   -0.49083
       H    -8.74935    6.06652    1.37116
       O    -7.85232    6.32680    1.09558
      H1    -7.42672    5.50408    0.97825
       H    -7.55558   -0.31565   -2.77808
       O    -7.49560   -1.07466   -3.42233
      H1    -6.80621   -1.59478   -2.95853
       H    -0.23957    4.87639    2.45115
       O    -1.03413    5.37772    2.14212
      H1    -1.78969    4.95821    2.57864
       H    -4.60461    8.24210   -4.03102
       O    -4.31344    7.77510   -3.23140
      H1    -4.32856    6.81944   -3.48788
       H    -6.75198    1.67712   -2.52385
       O    -7.39576    1.11995   -2.04121
      H1    -6.87681    0.87307   -1.24917
       H    -4.96031    3.87941   -0.73562
       O    -4.23696    3.38193   -0.27919
      H1    -3.43822    3.91822   -0.40856
       H    -8.40867    2.57345   -1.27718
       O    -8.54183    3.49052   -0.93892
      H1    -8.96545    3.96224   -1.66994
       H    -8.50871    8.14346   -0.57864
       O    -9.45339    8.38750   -0.54550
      H1    -9.69084    8.33990    0.38856
       H    -5.39784    0.95232    0.76683
       O    -6.29141    0.85457    0.48778
      H1    -6.77430    1.29498    1.16729
       H    -3.44315    1.06496    1.53043
       O    -3.41549    0.85812    0.56585
      H1    -3.54901    1.79746    0.22408
       H   -10.34828    5.73721   -1.96919
       O    -9.36438    5.82925   -2.08017
      H1    -9.22483    6.70825   -1.78082
       H    -6.23004   -0.35816   -6.01204
       O    -6.26405    0.52261   -5.57544
      H1    -6.73005    0.23447   -4.70825
       H    -8.34350    3.84729   -5.41896
       O    -9.31512    4.02669   -5.66053
      H1    -9.23977    4.97703   -5.46418
       H    -6.89660    3.91572    1.63637
       O    -6.05431    4.36737    1.82543
      H1    -5.47032    3.99172    1.19449
       H    -4.90076    1.88188    4.88014
       O    -4.84388    2.08909    3.94241
      H1    -4.19009    2.77526    3.83791

