90
frame 3 | Written by MDAnalysis XYZWriter (release 2.4.3)
       H    11.76481  -16.52115   16.01864
       O    11.60201  -16.18938   16.87126
      H1    10.70715  -15.75505   16.81614
       H    18.83868   -9.64766   16.85752
       O    19.67873  -10.02723   17.30020
      H1    20.18607  -10.43551   16.64738
       H     9.52741  -14.35754   15.86559
       O     9.15401  -14.66048   16.70747
      H1     9.35655  -14.00336   17.39033
       H    19.14369  -14.44574   11.48881
       O    19.45972  -13.66186   11.02396
      H1    19.44787  -12.96754   11.73948
       H    16.16911  -18.25955   13.78587
       O    15.34651  -18.55869   14.23188
      H1    14.71140  -18.01332   13.74841
       H    15.14260  -13.84516   13.14474
       O    15.55599  -14.45232   12.53698
      H1    15.95807  -13.82363   11.91299
       H    15.27684   -9.52918   18.84641
       O    15.03781   -9.35087   17.95319
      H1    15.82905   -8.94297   17.58048
       H    17.63133  -13.34491   17.51198
       O    17.20084  -13.19073   18.37629
      H1    17.86924  -12.52291   18.67344
       H    14.12602  -11.69824   13.09081
       O    14.89601  -11.96746   13.51818
      H1    14.45097  -12.34467   14.33965
       H    15.35733  -15.47253   16.78529
       O    15.05914  -16.36940   16.88344
      H1    14.75655  -16.68812   16.01479
       H    10.54817  -15.61402   11.55830
       O    11.36166  -15.63558   12.05634
      H1    11.96654  -15.22860   11.35186
       H    12.02459  -13.91524   14.69746
       O    12.90311  -13.56853   14.74145
      H1    13.05044  -13.69123   15.70915
       H     9.90723  -13.21630   13.93827
       O    10.12857  -14.09073   14.21782
      H1    10.30525  -14.50390   13.36413
       H    10.16996  -11.19165   15.86951
       O     9.51802  -11.48126   15.21465
      H1     8.74198  -11.59481   15.84388
       H    13.20052  -13.68255   10.24292
       O    13.26100  -14.61875   10.56265
      H1    13.76933  -14.51923   11.36873
       H    17.39065   -8.30897   15.70967
       O    17.72587   -8.29008   16.60768
      H1    18.45747   -7.67603   16.59574
       H    16.53984  -15.11163   13.98525
       O    16.99070  -15.47798   14.73025
      H1    17.25520  -14.56181   15.05086
       H    16.25187  -10.55063   13.82373
       O    17.12686  -10.35491   14.08628
      H1    17.56921  -10.71568   13.31948
       H    11.31355   -8.99496   12.46984
       O    11.30416   -9.93160   12.73660
      H1    11.39053   -9.82941   13.69169
       H    16.43536  -10.17960   11.13086
       O    16.89893   -9.31989   11.24357
      H1    16.44304   -8.66375   10.71427
       H    12.65699   -7.07165   17.03874
       O    12.70181   -7.88189   17.64532
      H1    13.57620   -8.23487   17.30334
       H    18.52553  -12.82755   15.11837
       O    17.59275  -12.99215   15.39737
      H1    17.20323  -12.10798   15.22870
       H    14.07253  -11.10544   10.78188
       O    13.37144  -11.44785   11.42148
      H1    12.75538  -10.73583   11.60803
       H    14.76359   -8.65155   15.06083
       O    13.80356   -8.48959   15.01508
      H1    13.76664   -7.83386   14.29702
       H    11.32473   -9.01622   17.35816
       O    10.83445   -9.86541   17.47442
      H1    11.60859  -10.27999   17.93444
       H     9.20749   -9.36238   14.88005
       O     9.38298   -8.46364   14.63908
      H1    10.41191   -8.31779   14.71858
       H    16.76490  -12.38581    9.73573
       O    16.79806  -12.44313   10.71256
      H1    17.52244  -13.06378   10.88181
       H    17.58993  -16.79113   13.87727
       O    17.66288  -17.53182   13.20488
      H1    18.15940  -18.21595   13.70372
       H    12.69037  -14.88630   17.81012
       O    12.80342  -13.90502   18.12121
      H1    13.57238  -13.94665   18.67550
       H    12.25750  -16.63368   13.53393
       O    12.52530  -17.20226   14.25918
      H1    12.14598  -18.01983   13.90788

