90
frame 3 | Written by MDAnalysis XYZWriter (release 2.4.3)
       H    -5.29093   17.20361    3.74841
       O    -4.41413   17.55149    3.40635
      H1    -4.73947   18.42929    3.31251
       H   -12.71798   18.29565   -3.05045
       O   -12.22463   17.46785   -2.92306
      H1   -11.83921   17.42010   -2.05898
       H   -11.31783   10.29200    2.20464
       O   -11.31994   11.24464    2.19328
      H1   -10.45375   11.47676    1.82768
       H    -6.18768   17.76542   -0.56001
       O    -6.27136   18.37075    0.20672
      H1    -5.83764   19.14022   -0.17848
       H    -7.92888   15.47104    0.71777
       O    -7.30641   15.71150    1.40941
      H1    -7.56752   16.63357    1.56599
       H    -3.05690   13.95802   -0.98053
       O    -3.91749   13.58134   -0.65983
      H1    -3.72167   12.90914    0.06394
       H    -2.86430   16.87918    0.03414
       O    -1.89026   16.99967   -0.13562
      H1    -1.84462   17.25596   -1.09041
       H    -7.86581   16.36996   -2.34751
       O    -6.96388   16.71190   -2.10443
      H1    -6.74218   17.07856   -3.00366
       H    -7.83554   13.38664    2.29372
       O    -8.00935   12.52997    2.69942
      H1    -7.12006   12.18939    2.87434
       H    -9.08206   11.21455   -1.83448
       O    -9.73591   11.00632   -1.07735
      H1    -9.51539   10.05723   -1.04052
       H    -6.09510   14.95421   -2.47346
       O    -5.45499   14.43547   -2.95555
      H1    -5.08432   13.88470   -2.25291
       H    -6.27155   10.52817    1.13246
       O    -6.25236   11.47538    0.85073
      H1    -7.25301   11.58329    0.98716
       H    -2.38740   15.27496    3.89959
       O    -2.04966   15.30206    3.02270
      H1    -2.78374   15.74598    2.49004
       H    -8.59740   11.60653   -3.73866
       O    -8.31262   12.24103   -3.08136
      H1    -7.51646   11.99677   -2.61672
       H    -9.10165   12.20921    3.90724
       O    -9.89569   11.98647    4.45313
      H1   -10.53929   11.85968    3.71174
       H    -8.83182   19.66982   -0.84381
       O    -8.81784   18.99789   -0.13567
      H1    -7.90074   18.77757   -0.10835
       H    -8.24573   14.12163   -5.15301
       O    -7.38514   14.58379   -5.00237
      H1    -7.08115   14.12561   -4.19565
       H   -13.10833   15.06924    2.60545
       O   -12.75451   15.51022    3.42003
      H1   -12.74459   16.44376    3.11497
       H    -5.47152   11.76178    4.14828
       O    -6.41789   11.32455    4.39458
      H1    -6.84007   12.07297    4.80491
       H   -10.20729   14.89785   -3.03523
       O    -9.91105   15.80015   -2.88460
      H1   -10.64392   16.42032   -2.98901
       H    -6.89960   14.84626    4.30609
       O    -6.15001   15.44951    3.98533
      H1    -6.44822   15.41592    3.04813
       H    -5.72030   11.34557   -1.08676
       O    -5.65452   11.23245   -2.03135
      H1    -4.65979   10.98863   -2.08578
       H    -9.33480   15.23514    4.60530
       O    -9.21865   15.36128    3.64858
      H1   -10.05447   14.95870    3.29189
       H   -11.53364   14.39480   -0.80678
       O   -11.10893   14.44384    0.05938
      H1   -11.15377   15.36713    0.23847
       H    -9.88558   19.31467    1.10643
       O   -10.48303   19.59572    1.86084
      H1    -9.90267   19.32894    2.57730
       H    -4.90913   16.55718    1.05919
       O    -4.11946   16.06346    0.90211
      H1    -4.36259   15.20758    0.60804
       H    -8.25116   18.26952    4.49960
       O    -8.75580   18.18445    3.67726
      H1    -9.08192   17.33933    3.85158
       H    -9.36658   14.02440   -0.45942
       O    -8.41200   13.87377   -0.67428
      H1    -8.56456   13.24140   -1.40781
       H   -13.99828   14.71068    0.45471
       O   -13.59777   14.15654    1.16758
      H1   -12.65256   14.25513    0.91481
       H   -12.58400   17.57302    0.05685
       O   -11.66992   17.20677   -0.26225
      H1   -10.97017   17.78248   -0.06646

