90
frame 3 | Written by MDAnalysis XYZWriter (release 2.4.3)
       H    10.78754    1.24373   20.02072
       O    10.32880    1.59313   19.24801
      H1    11.08441    1.76657   18.60885
       H    14.51177    0.53903   13.20426
       O    14.96826   -0.26070   13.53251
      H1    15.74294    0.20391   13.92135
       H    16.42022    2.80334   10.75561
       O    16.47692    2.00273   11.34352
      H1    16.81210    1.33644   10.67930
       H    12.67341    0.99919   10.65489
       O    12.02037    0.66187   10.01978
      H1    11.78546   -0.20288   10.25181
       H    13.12865    5.87581   12.53284
       O    13.95405    5.42836   12.40200
      H1    13.78946    4.68803   11.78921
       H    12.96815   -0.32208   17.36992
       O    12.23720   -0.13670   16.81290
      H1    11.41509   -0.53728   17.13888
       H    10.79890    7.45052   13.42980
       O     9.79380    7.57372   13.44395
      H1     9.59132    8.10225   12.66931
       H    15.33982    5.73410   13.48130
       O    15.91142    6.24141   14.06853
      H1    16.32367    5.45596   14.43625
       H    13.36646    7.77749   19.33628
       O    13.60763    7.40853   18.44019
      H1    14.17624    6.73604   18.81189
       H    16.20374    3.78046   17.39116
       O    16.30735    4.67095   17.09433
      H1    15.45304    4.82593   16.70366
       H    13.75255    8.50706   17.32927
       O    14.13334    9.10391   16.59661
      H1    13.45753    9.82922   16.67109
       H    14.54019    6.23995   15.40941
       O    13.72435    5.91123   15.84693
      H1    13.68805    6.53511   16.57149
       H    19.52843    6.31943   14.93522
       O    18.86247    6.97540   14.55898
      H1    18.05964    6.41149   14.51074
       H    10.01378    4.09099   11.35829
       O    10.84805    4.52239   11.57419
      H1    11.32613    4.27003   10.75076
       H    13.17708    7.95966   13.74651
       O    12.45486    7.50075   13.29265
      H1    12.45793    8.00723   12.46743
       H    17.97673    1.27221   16.21011
       O    18.01111    1.82748   17.01231
      H1    18.76511    1.46700   17.50176
       H    13.80684    2.55305   13.01245
       O    14.00008    2.01494   12.22807
      H1    14.94475    2.39464   12.04852
       H    11.84830   -0.60663   15.13650
       O    11.77777   -0.58155   14.17383
      H1    10.91783   -0.15357   14.08639
       H    15.72471    1.63925   17.01162
       O    14.95384    2.17148   17.18771
      H1    14.68421    1.83157   18.05221
       H    16.99262    1.92505   14.57625
       O    17.11032    0.97390   14.73705
      H1    17.51076    0.71087   13.86528
       H    11.39093    5.32312   15.21007
       O    10.75691    4.66610   15.50731
      H1     9.94848    5.14744   15.66834
       H    11.35067    3.91482   18.05422
       O    12.11642    3.48179   17.53465
      H1    11.85836    3.86571   16.63485
       H    13.10120   -2.33317   15.37271
       O    14.09809   -2.30209   15.36229
      H1    14.11982   -1.34808   15.14673
       H    13.40890    4.13086   14.89483
       O    13.92118    3.24324   14.72977
      H1    13.82855    2.79529   15.57946
       H    10.25822    6.12089   11.09539
       O    10.01937    6.91915   10.57977
      H1     9.30261    6.53992   10.08429
       H    18.36591    3.26350   13.78506
       O    19.29677    3.27933   13.47156
      H1    19.24177    2.85087   12.63993
       H     8.33292    6.85154   15.50558
       O     8.16710    5.96744   15.80681
      H1     7.55378    5.99923   16.54296
       H    15.49913    3.48362   14.60790
       O    16.49257    3.52141   14.64869
      H1    16.65261    3.83405   15.56074
       H    11.40573    5.88072   20.00249
       O    11.01259    5.89560   19.11669
      H1    11.91959    5.98067   18.66477
       H    18.03347    8.75264   11.97582
       O    17.05273    8.52503   12.06859
      H1    16.88189    8.08120   12.91783

