90
frame 6 | Written by MDAnalysis XYZWriter (release 2.4.3)
       H     8.33031    8.13509   11.98071
       O     8.71168    7.64264   11.27740
      H1     8.32944    8.14984   10.56502
       H     5.98451    2.77707   11.01147
       O     5.12443    2.34757   10.85156
      H1     5.13921    1.56591   11.34875
       H     2.56574    3.59166    9.39571
       O     3.09014    4.06788   10.05586
      H1     3.86011    3.43447   10.23701
       H    10.01747    8.90783   11.32306
       O    10.54618    9.72228   11.46550
      H1    10.58087   10.27332   10.64824
       H     5.91709    5.29870    5.16904
       O     5.38364    4.87664    5.87484
      H1     5.91595    5.01585    6.69247
       H     9.59828    7.97519   15.92846
       O     9.33694    8.01669   14.96960
      H1     8.91732    7.19141   14.63565
       H     6.97210    0.59481    6.00924
       O     7.15257    1.51373    6.23699
      H1     8.05601    1.58404    6.54754
       H     5.06406    5.41289   15.00749
       O     5.24793    4.81997   14.27560
      H1     4.47027    4.91241   13.65798
       H     9.36146    8.13089    8.13024
       O     8.38682    8.27348    8.11250
      H1     8.26923    9.27787    8.11237
       H     6.87128    6.53070    8.02249
       O     6.37541    5.72132    8.26333
      H1     5.67220    6.14235    8.77625
       H     9.03554    0.44904   13.65557
       O     8.96980    0.15177   12.73361
      H1     8.07008    0.31658   12.50570
       H     7.01690    2.14564   13.86720
       O     7.34655    3.03148   13.98781
      H1     6.56129    3.58350   14.00059
       H     8.80462    5.32923   13.99383
       O     8.10191    5.97037   13.83298
      H1     7.22557    5.67179   13.99587
       H     8.62482    0.41800    8.57644
       O     8.51649    0.90210    9.39000
      H1     8.26984    0.17430    9.91452
       H    11.44985    5.62937   10.34120
       O    11.04800    6.36150    9.79472
      H1    10.45403    6.74168   10.42828
       H     6.17141    0.43256    8.13379
       O     5.30666    0.52369    8.59379
      H1     5.51965    1.27947    9.19682
       H     6.04039   11.71416   10.95599
       O     6.71933   11.00501   10.94733
      H1     7.45115   11.40320   11.37392
       H    12.08767    6.46433    8.47259
       O    12.66119    6.41993    7.68154
      H1    12.55109    5.47518    7.46487
       H     2.97004    4.90681   11.75288
       O     3.14870    5.43144   12.57221
      H1     2.28792    5.55829   13.04518
       H     8.27213   11.28447    8.03255
       O     7.49305   10.71861    8.23512
      H1     7.27500   10.92777    9.17520
       H    11.93526    3.91714    6.51777
       O    12.08586    3.79979    7.48843
      H1    11.22873    3.50829    7.87920
       H     4.26564    7.06472   12.11696
       O     4.33631    7.94483   11.80792
      H1     5.16680    8.30183   12.10113
       H     2.79786    7.40394    8.40694
       O     2.02495    7.28720    7.80269
      H1     2.04345    8.00422    7.12811
       H    10.53009    4.18847   12.83791
       O     9.99586    3.93063   13.64893
      H1     9.17787    3.48526   13.36515
       H     3.53778    5.76873    9.54234
       O     4.03678    6.58760    9.47881
      H1     4.17888    7.08047   10.32139
       H     4.82420    2.05269    7.46351
       O     4.29054    2.61462    6.91942
      H1     4.91229    3.23051    6.44339
       H    11.54443    3.89800   11.10581
       O    11.61512    4.63496   11.69311
      H1    12.58136    4.65794   11.86363
       H     6.48959    9.23398   13.82819
       O     6.51136    9.13777   12.87952
      H1     6.34547   10.00771   12.48650
       H     9.62259    4.26182    9.87841
       O     9.97429    3.44741    9.49136
      H1     9.18975    2.94231    9.31470
       H     7.32465    5.47634   10.33082
       O     7.69307    4.86404   10.99897
      H1     7.97107    5.49267   11.65599

