90
frame 3 | Written by MDAnalysis XYZWriter (release 2.4.3)
       H    14.54708  -19.01731   -2.91751
       O    14.00343  -18.83924   -3.76226
      H1    14.04996  -19.73998   -4.10603
       H    14.10910  -19.06861    2.55855
       O    14.65905  -18.35249    2.29405
      H1    14.08730  -17.55513    2.26701
       H    16.07003  -16.61621   -1.55024
       O    16.63099  -15.92117   -1.92387
      H1    17.57906  -16.24502   -1.69014
       H    12.02168  -13.53658   -2.57948
       O    11.83906  -14.45199   -2.33310
      H1    12.00296  -14.88660   -3.21598
       H    11.92919  -13.70249    1.22455
       O    12.86274  -13.53613    1.47708
      H1    12.72607  -12.85740    2.14892
       H    11.24195  -17.20113   -3.97379
       O    12.06116  -16.91995   -3.48451
      H1    12.71311  -17.64441   -3.70817
       H    12.74204  -12.23308    0.05270
       O    12.39493  -11.40876   -0.20298
      H1    11.49961  -11.63732   -0.44251
       H    10.72043  -17.18742    0.25762
       O    10.22402  -16.82426    1.06961
      H1    10.07543  -15.88983    0.83208
       H    16.56659  -15.81652    0.46447
       O    16.96298  -16.30427    1.19100
      H1    16.40285  -17.04437    1.37615
       H     8.53448  -17.97011    0.62222
       O     7.95573  -18.61109    1.10550
      H1     7.36194  -18.87738    0.34413
       H    15.96054  -14.36309   -2.56302
       O    15.24075  -13.68681   -2.58143
      H1    15.76958  -12.92815   -2.91373
       H    13.47715  -14.77983    2.51928
       O    13.73437  -15.66007    2.92877
      H1    12.85706  -16.03863    3.17737
       H    13.71338  -12.37988   -3.02431
       O    12.94262  -11.81151   -2.79501
      H1    13.06202  -11.62082   -1.82049
       H     8.69555  -18.31348   -3.02820
       O     8.78223  -18.91954   -2.29129
      H1     9.43410  -19.55854   -2.70735
       H    18.01324  -18.53928   -0.02075
       O    17.27678  -19.03075    0.43278
      H1    17.61923  -18.90512    1.38354
       H    14.18048  -15.98127    5.75977
       O    14.97463  -16.37184    5.34184
      H1    14.62915  -16.19495    4.44128
       H    17.53342  -18.72926    3.86162
       O    17.90058  -18.57831    2.96026
      H1    18.75317  -18.97056    2.86733
       H    11.36013  -19.74712    3.56677
       O    12.10655  -19.13610    3.75476
      H1    12.62114  -19.65836    4.38935
       H    16.43020  -18.51089   -5.50520
       O    17.18280  -19.05403   -5.76854
      H1    16.72274  -19.83009   -6.13413
       H    15.29965  -18.47946   -0.48428
       O    14.77560  -18.16778   -1.27815
      H1    14.07544  -17.79483   -0.75812
       H    15.30035  -12.99429   -0.35596
       O    15.54621  -12.08095   -0.07479
      H1    15.57415  -12.14204    0.87767
       H    10.06358  -14.18731   -2.10009
       O     9.23875  -13.99120   -1.68403
      H1     8.65115  -14.68998   -1.90733
       H    10.31940  -19.74617   -4.89309
       O    10.09839  -18.79792   -4.82217
      H1     9.38694  -18.83456   -5.49386
       H    14.67157  -15.38303   -5.24251
       O    14.87865  -14.45629   -5.47655
      H1    15.16458  -14.08249   -4.62178
       H    10.74743  -16.78408    2.73512
       O    11.10535  -16.78904    3.65205
      H1    11.47392  -17.69527    3.66088
       H     9.41366  -13.61907    1.63738
       O    10.07010  -13.99730    0.99045
      H1     9.57598  -13.90985    0.13347
       H    13.24364  -15.04825    0.31434
       O    13.84735  -15.42209   -0.32694
      H1    13.34784  -15.27579   -1.17647
       H    19.32390  -16.52452   -0.42288
       O    18.87648  -17.03437   -1.14406
      H1    19.59766  -17.11715   -1.78474
       H    16.08235  -16.60893   -4.14780
       O    15.63307  -17.08128   -4.87066
      H1    14.96445  -17.65804   -4.51955
       H    10.38430  -18.41290   -1.43361
       O    11.27137  -18.20234   -1.11996
      H1    11.64180  -17.80816   -1.91777

