90
frame 2 | Written by MDAnalysis XYZWriter (release 2.4.3)
       H     7.01859    2.16374   -3.68449
       O     6.08004    2.34506   -3.60671
      H1     5.69555    1.49113   -3.83581
       H    14.36911    3.44090   -0.65166
       O    15.10523    3.46203    0.01133
      H1    15.67638    2.69246   -0.06673
       H    13.00364    2.52208   -6.72606
       O    12.81754    1.67041   -6.31899
      H1    13.29726    1.10378   -6.97914
       H    12.50369    6.57513   -5.93066
       O    11.93785    7.17329   -5.49300
      H1    12.56015    7.64352   -4.95333
       H    15.74589    0.44075   -3.33261
       O    15.12423   -0.32668   -3.09593
      H1    14.22424    0.05275   -3.08725
       H    13.31445    4.78061   -2.30221
       O    13.59392    3.81506   -2.44536
      H1    12.74500    3.36053   -2.59275
       H     8.65613    4.71433   -4.63767
       O     9.42809    4.92159   -4.08311
      H1    10.04242    5.17468   -4.81109
       H    10.46286    4.72345   -7.85087
       O    10.08252    4.87375   -6.98684
      H1    10.19038    3.95050   -6.66105
       H    15.91234    4.01542   -4.73094
       O    15.33558    3.51671   -5.32635
      H1    14.60032    3.55472   -4.68962
       H    13.85433   -1.59173   -0.40258
       O    14.61765   -0.96475   -0.39747
      H1    14.62283   -0.78014   -1.32287
       H    13.97203    0.69234    0.14391
       O    13.20644    1.30807    0.13286
      H1    13.63464    2.13412    0.31020
       H    14.96017   -0.10509   -8.06128
       O    13.97093    0.01246   -8.07799
      H1    13.72784   -0.89692   -7.87574
       H    14.64903    5.10552   -6.17919
       O    14.40685    6.04360   -6.06406
      H1    14.60088    6.53888   -6.85069
       H    10.73979    3.39155   -1.66234
       O    11.05569    3.13142   -2.54749
      H1    10.43532    3.57251   -3.09393
       H    11.48227    1.45401    0.26146
       O    10.51752    1.39032   -0.01851
      H1    10.19132    2.07582    0.56268
       H    17.09971    5.36794   -2.94301
       O    16.64760    4.56136   -3.16977
      H1    16.00842    4.52031   -2.46125
       H    16.59127    2.20493   -4.27679
       O    16.98472    1.64572   -3.57067
      H1    17.91363    1.35368   -3.83597
       H    10.95796    1.80605   -6.51241
       O    10.13278    2.20036   -6.14231
      H1     9.56526    1.44109   -6.34885
       H    15.27096   -2.66135   -7.74713
       O    15.87973   -2.21572   -8.32161
      H1    16.34029   -3.09550   -8.66558
       H    11.79516   -0.58874   -1.20304
       O    11.97175   -1.53340   -1.28790
      H1    12.28176   -1.49927   -2.23932
       H     8.22719   -1.38818   -3.55426
       O     8.19153   -2.38309   -3.61723
      H1     8.98809   -2.55265   -3.18121
       H    13.68839   -1.90035   -4.12743
       O    12.89075   -2.29945   -3.74587
      H1    12.31915   -2.42722   -4.53368
       H    13.52784   -3.57703   -6.37108
       O    13.50977   -2.91355   -7.04040
      H1    13.56182   -3.45947   -7.84281
       H    10.96686   -3.11799   -6.53317
       O    10.05180   -3.47342   -6.46525
      H1     9.56173   -2.60624   -6.56926
       H    12.57987    1.19237   -4.58425
       O    12.36657    0.70132   -3.75901
      H1    11.81112    1.36891   -3.39328
       H    15.69513   -1.55577   -4.11812
       O    16.19897   -2.18778   -4.62564
      H1    16.62425   -1.73945   -5.31125
       H     8.78299    0.87293   -2.89966
       O     8.31958    0.76851   -3.78464
      H1     8.82652    1.41479   -4.31226
       H    12.96441    3.60061   -9.09631
       O    13.46440    3.42203   -8.29496
      H1    14.30978    3.00779   -8.61624
       H     7.78338    0.01111    0.39169
       O     8.16582   -0.24655   -0.47738
      H1     9.09878   -0.13752   -0.39541
       H     9.88294   -0.19237   -8.26437
       O     9.65937   -0.13574   -7.31341
      H1     8.84515   -0.63156   -7.22788

