90
frame 3 | Written by MDAnalysis XYZWriter (release 2.4.3)
       H    12.26421   -7.57239    2.72786
       O    12.73738   -7.98237    3.48707
      H1    13.49249   -8.35151    3.07993
       H    17.57365  -12.44839   -0.44956
       O    18.52785  -12.58126   -0.65019
      H1    18.64109  -11.92154   -1.36391
       H    16.15079    0.38556    3.80024
       O    16.25314   -0.59299    3.89631
      H1    15.91958   -1.03846    3.06990
       H    11.62881   -7.23335   -0.36789
       O    12.02101   -7.47752   -1.19959
      H1    12.87390   -7.82751   -0.87212
       H    14.27147   -3.22811    1.86619
       O    14.55676   -2.32140    1.61578
      H1    14.15796   -2.31784    0.72876
       H    18.17645   -3.91654   -1.60551
       O    17.57933   -3.11848   -1.44650
      H1    17.71905   -2.67786   -2.33968
       H    13.69064   -5.57699    4.47005
       O    13.08242   -5.99610    5.09854
      H1    12.63811   -6.55782    4.44385
       H    16.66043   -9.51458    0.45279
       O    16.64255   -8.54016    0.52930
      H1    17.23212   -8.29919   -0.20220
       H    19.53574  -10.56632    2.72030
       O    19.05618  -10.37026    1.86537
      H1    18.71598   -9.48094    1.86659
       H    16.58716   -3.18180    1.15326
       O    17.39156   -3.57987    1.63646
      H1    18.06405   -3.87802    0.95530
       H    14.55131   -4.52681    7.80216
       O    15.19569   -5.18295    8.20139
      H1    14.93804   -5.13042    9.11331
       H    14.73963   -8.55038    0.64373
       O    13.80271   -8.68533    0.48451
      H1    13.56540   -9.55331    0.87638
       H    18.31397   -9.65171    8.55543
       O    17.57279   -9.93283    8.03035
      H1    17.37506   -9.05712    7.62589
       H    12.28684  -10.14014    2.86254
       O    12.67083  -11.00597    2.60455
      H1    12.38898  -11.00333    1.64135
       H    16.87242   -7.01285    8.09065
       O    17.61588   -6.76818    7.49054
      H1    17.15418   -6.52740    6.68110
       H    16.87440   -4.41602    9.08809
       O    17.81429   -4.01705    9.15180
      H1    18.23085   -4.59551    8.43605
       H    17.61304   -8.40688    4.15394
       O    18.31999   -8.15377    3.53076
      H1    17.95799   -7.27585    3.31251
       H    18.24742   -2.34751    2.61981
       O    19.11355   -1.98100    2.85973
      H1    19.06038   -1.08672    2.98165
       H    12.23379   -9.37773    7.17384
       O    12.50673   -9.34639    6.24218
      H1    12.97548   -8.49728    6.26985
       H    15.30035  -12.99429   -0.35596
       O    15.54621  -12.08095   -0.07479
      H1    15.57415  -12.14204    0.87767
       H    15.29534   -8.51739    8.41104
       O    15.51618   -7.77986    8.94425
      H1    14.92126   -7.09167    8.50132
       H    15.72285   -5.70099   -2.30109
       O    15.12870   -5.10577   -1.85832
      H1    15.62679   -4.35757   -1.58175
       H    18.25463   -8.90932   -1.98443
       O    18.39271   -8.21153   -1.37030
      H1    18.46941   -7.47289   -1.99051
       H    16.67671   -6.70684    1.39127
       O    16.57801   -6.22075    2.27271
      H1    16.86831   -5.35645    1.97165
       H    14.44338  -10.30264    3.10754
       O    15.11310   -9.58982    3.18842
      H1    15.93075   -9.96076    2.79555
       H    17.88837  -11.25998    6.42678
       O    17.92532  -11.06857    5.45291
      H1    17.51146  -11.88855    5.10240
       H    15.93576   -9.08757    4.80728
       O    16.42476   -8.82798    5.58417
      H1    16.99786   -9.60833    5.71177
       H    14.93273   -5.36047    2.57037
       O    14.09803   -4.80925    2.50335
      H1    13.43071   -5.43979    2.20908
       H    16.65545  -12.60514    3.18676
       O    16.71235  -11.89545    2.56847
      H1    17.57009  -11.95184    2.17580
       H    15.31745  -10.73939    7.52899
       O    14.41991  -10.52878    7.67220
      H1    14.01758  -10.23288    6.82560

