90
frame 3 | Written by MDAnalysis XYZWriter (release 2.4.3)
       H   -13.25858    1.06491   -9.83493
       O   -12.65025    1.83284   -9.60932
      H1   -12.79773    2.48112  -10.34023
       H   -12.22653    4.38980  -11.10252
       O   -12.46008    3.64252  -11.66717
      H1   -13.33723    3.86987  -12.00470
       H   -10.25546    7.37487  -12.56000
       O    -9.93279    6.42703  -12.49082
      H1   -10.22507    6.14382  -13.35278
       H   -16.70567    3.04345  -12.37826
       O   -16.67440    2.10134  -12.27453
      H1   -17.26795    2.03907  -11.49979
       H   -15.14698   -0.71319  -17.13886
       O   -15.13718   -0.38521  -18.03138
      H1   -15.64013   -1.09912  -18.42282
       H   -11.90763   -2.18590  -16.94745
       O   -12.62920   -1.62936  -17.26981
      H1   -13.35360   -1.86933  -16.67325
       H   -14.39224    5.58823  -13.06859
       O   -14.95790    4.94207  -13.49624
      H1   -14.75526    5.03317  -14.44763
       H   -16.84723   -0.98856  -11.83482
       O   -16.87976   -1.35123  -12.72847
      H1   -16.40852   -0.69107  -13.27977
       H    -9.45589    0.28609  -10.79778
       O    -9.75022    1.06357  -11.27438
      H1   -10.10058    0.72027  -12.10717
       H    -8.87626   -2.10693  -12.79535
       O    -8.61191   -1.26193  -12.43501
      H1    -7.69297   -1.29690  -12.55416
       H   -12.62537   -1.81006  -13.23441
       O   -13.00889   -1.04193  -12.86889
      H1   -12.24629   -0.46730  -12.88797
       H   -14.12803   -0.70038  -10.84929
       O   -14.07210   -0.59029   -9.88011
      H1   -13.38172   -1.21230   -9.52699
       H   -12.94969    3.64428  -18.37487
       O   -13.29625    4.56903  -18.21655
      H1   -13.72099    4.41280  -17.41933
       H   -14.50973    3.27074  -16.04108
       O   -15.19249    3.94246  -16.16697
      H1   -15.90660    3.38796  -16.53689
       H   -12.35363    7.21609  -12.46903
       O   -12.93739    6.64279  -12.99130
      H1   -12.41767    6.63189  -13.82593
       H    -8.35013    1.93154  -12.11532
       O    -7.92004    2.63590  -12.63350
      H1    -7.34894    2.19065  -13.29862
       H   -11.96762    0.04634  -17.55045
       O   -11.56832    0.92843  -17.59791
      H1   -10.62181    0.75588  -17.66688
       H    -9.71438    2.93100   -8.56409
       O    -9.61203    3.23834   -9.48319
      H1   -10.01101    2.51101   -9.98946
       H    -9.60538   -1.86776  -16.95150
       O    -9.92160   -2.77323  -17.04702
      H1   -10.34643   -2.73311  -17.94030
       H   -10.78363    5.04018  -15.94426
       O   -10.55600    5.04447  -14.99706
      H1   -10.77658    4.13760  -14.71281
       H    -9.49260    0.08568  -13.53935
       O   -10.21354    0.00029  -14.21115
      H1   -10.57279    0.90637  -14.37402
       H   -17.28923    2.19951  -17.61093
       O   -16.77053    1.80916  -16.91019
      H1   -16.23803    1.18127  -17.37278
       H    -8.12509    3.79195  -18.00393
       O    -8.54080    4.48920  -18.49104
      H1    -9.32457    4.71701  -17.95738
       H   -14.17491   -0.05241  -13.77255
       O   -15.01052    0.35945  -14.04176
      H1   -14.97781    1.20438  -13.49984
       H    -9.23606   -0.08336  -15.64137
       O    -8.80503   -0.20085  -16.48871
      H1    -8.01818   -0.73439  -16.17138
       H   -11.79965    4.90339  -17.70353
       O   -10.98166    5.40954  -17.60661
      H1   -11.10224    6.11051  -18.27844
       H   -12.05914    2.18242  -14.69053
       O   -11.36480    2.53897  -14.15361
      H1   -11.84750    2.77100  -13.34125
       H   -12.97921    2.17971  -19.86587
       O   -12.14201    2.53602  -19.53465
      H1   -11.97914    1.73901  -18.91009
       H   -13.59161    1.11958  -15.66204
       O   -13.21714    2.00470  -15.92893
      H1   -12.57912    1.65462  -16.58050
       H   -15.53282   -2.49116  -15.71554
       O   -14.74618   -1.96965  -15.46791
      H1   -14.98350   -1.66277  -14.57916

