90
frame 3 | Written by MDAnalysis XYZWriter (release 2.4.3)
       H   -16.04268    6.05313   -4.34266
       O   -16.67228    5.99561   -3.59301
      H1   -16.13710    5.65778   -2.83807
       H   -18.27201   11.47028   -7.25623
       O   -17.78723   11.67042   -8.06334
      H1   -17.60862   12.61922   -7.89936
       H   -12.86908    9.67526   -1.74189
       O   -13.01080    8.73186   -1.80057
      H1   -13.43980    8.65030   -2.65881
       H   -13.23823    6.74245   -5.09198
       O   -13.21919    5.77851   -5.06828
      H1   -13.28658    5.71623   -6.08133
       H   -15.01778   10.26510   -8.59766
       O   -15.08811   11.17006   -8.19882
      H1   -15.97383   11.42127   -8.24080
       H   -16.22408    7.47183   -8.98334
       O   -17.00679    7.28526   -8.49004
      H1   -17.66890    7.53553   -9.13902
       H   -18.10417    9.16618    4.01550
       O   -18.67464    8.52812    3.60542
      H1   -18.74663    8.83978    2.70888
       H   -16.63810   10.36533   -2.49806
       O   -15.89371    9.95038   -2.01420
      H1   -15.30046    9.72237   -2.71449
       H   -19.18003    4.92173   -6.58466
       O   -19.60793    5.63018   -6.08415
      H1   -19.43390    5.41262   -5.16469
       H   -17.25138    3.78443   -7.53060
       O   -18.05362    4.35052   -7.75743
      H1   -17.63270    5.10655   -8.25201
       H   -16.43305    7.52822   -6.90345
       O   -16.31213    7.80354   -5.95994
      H1   -17.23633    7.87376   -5.63280
       H   -18.88733   11.03806   -2.72212
       O   -18.20183   10.75689   -3.35985
      H1   -18.61931   10.99187   -4.22345
       H   -19.08704   13.03317   -0.45280
       O   -18.79008   13.90915   -0.06893
      H1   -17.85191   13.72746   -0.36014
       H   -14.82652   10.02206    0.42231
       O   -13.97301    9.92514    0.82629
      H1   -14.02669   10.34453    1.69191
       H   -16.19863   12.36056   -1.66912
       O   -16.09806   12.53867   -0.73970
      H1   -15.53537   13.32244   -0.72402
       H   -14.88187    2.14800   -6.93510
       O   -15.77926    2.56897   -6.91815
      H1   -15.66708    2.86299   -5.98465
       H   -19.77883   11.61578   -6.45918
       O   -19.16051   11.08766   -5.88720
      H1   -19.68174   10.29601   -5.95408
       H   -15.67194    6.17335    1.26006
       O   -14.87635    5.93952    1.74074
      H1   -14.18359    6.21902    1.11720
       H   -16.48158   11.69515    0.70676
       O   -16.55234   11.41697    1.64128
      H1   -15.77430   11.75568    2.10016
       H   -18.32736    8.75057    0.41175
       O   -18.75253    9.50111    0.90309
      H1   -18.01199   10.11136    1.07651
       H   -15.07233    2.70624   -3.52388
       O   -15.40594    3.31929   -4.24129
      H1   -16.31888    3.46833   -4.00860
       H   -17.67251    7.08977   -1.28606
       O   -18.00029    7.21786   -0.38144
      H1   -18.62499    6.52401   -0.22699
       H   -13.09104    7.69724   -0.38786
       O   -12.95609    7.27862    0.44877
      H1   -13.55912    7.76372    1.02951
       H   -14.92859   11.38963   -6.47078
       O   -14.99607   11.55255   -5.48561
      H1   -15.24209   10.68774   -5.12258
       H   -17.57238    7.58381   -3.32444
       O   -18.33661    8.08025   -3.63641
      H1   -18.23560    9.08759   -3.34615
       H   -17.85008    9.68820  -10.68281
       O   -17.18460   10.27129  -10.30985
      H1   -17.64554   10.56483   -9.50905
       H   -13.48228    9.05230   -4.67917
       O   -14.28638    8.66015   -4.26240
      H1   -14.85170    8.30189   -4.92095
       H   -13.88921    5.30203   -2.16162
       O   -14.82702    5.00696   -1.94077
      H1   -15.09059    4.26550   -2.56300
       H   -17.26886   12.68515   -3.70383
       O   -16.47030   13.14802   -3.58430
      H1   -15.89615   12.86511   -4.34803
       H   -19.57561    4.00832   -3.11462
       O   -18.95181    4.04670   -3.86686
      H1   -18.39154    4.91641   -3.76459

