90
frame 3 | Written by MDAnalysis XYZWriter (release 2.4.3)
       H     8.51616   -9.12821   -2.14329
       O     8.15760   -9.16065   -1.22138
      H1     7.20610   -9.35440   -1.26785
       H    12.26421   -7.57239    2.72786
       O    12.73738   -7.98237    3.48707
      H1    13.49249   -8.35151    3.07993
       H    17.29735   -5.64903   -4.63785
       O    17.14864   -5.97528   -3.78254
      H1    17.88567   -5.52866   -3.31231
       H    13.70847   -4.63419   -5.34513
       O    13.32351   -5.39292   -5.83590
      H1    13.03352   -6.01084   -5.14949
       H     9.78944   -4.99221   -4.80739
       O     9.28682   -5.81054   -4.61614
      H1     8.39137   -5.42413   -4.51573
       H    12.11725   -5.60012   -1.16672
       O    12.35201   -4.59654   -1.11370
      H1    13.25301   -4.67856   -1.49684
       H    13.39502   -9.24960   -3.69541
       O    13.93108   -9.27969   -2.88393
      H1    13.39345   -9.87080   -2.34737
       H    11.62881   -7.23335   -0.36789
       O    12.02101   -7.47752   -1.19959
      H1    12.87390   -7.82751   -0.87212
       H    11.92577   -3.85708    0.36307
       O    11.56828   -3.91221    1.27185
      H1    11.07230   -3.09502    1.37980
       H    14.27147   -3.22811    1.86619
       O    14.55676   -2.32140    1.61578
      H1    14.15796   -2.31784    0.72876
       H    16.66043   -9.51458    0.45279
       O    16.64255   -8.54016    0.52930
      H1    17.23212   -8.29919   -0.20220
       H    12.90995   -1.66512   -1.89013
       O    13.56141   -1.43556   -1.25172
      H1    14.27411   -1.10029   -1.82941
       H     9.90252   -6.99296   -1.15041
       O     9.48929   -6.57952   -0.40145
      H1     8.56317   -6.90412   -0.52076
       H    16.58716   -3.18180    1.15326
       O    17.39156   -3.57987    1.63646
      H1    18.06405   -3.87802    0.95530
       H    14.73963   -8.55038    0.64373
       O    13.80271   -8.68533    0.48451
      H1    13.56540   -9.55331    0.87638
       H     9.65928   -0.63061    0.84938
       O    10.14379   -1.40070    1.16864
      H1    10.85850   -0.99536    1.74725
       H     8.98941   -4.26091   -1.28226
       O     8.51973   -3.44842   -1.55075
      H1     9.34502   -2.88373   -1.52062
       H    10.95904   -6.73587   -3.86334
       O    11.76165   -7.15696   -4.19203
      H1    12.19120   -7.42573   -3.32019
       H    10.06820   -1.31742   -3.17797
       O    10.59272   -1.91974   -2.58603
      H1    11.25116   -2.18284   -3.30015
       H     6.35718   -2.00173   -0.42153
       O     6.13080   -2.89631   -0.73147
      H1     7.04324   -3.30285   -0.89306
       H     8.56180   -1.41970   -4.33203
       O     8.22742   -2.31964   -4.37550
      H1     8.34226   -2.64576   -3.47630
       H     9.90984  -10.08069   -3.19712
       O     9.40700   -9.30274   -3.49334
      H1     8.59483   -9.69656   -3.78000
       H    12.75598   -1.46679   -4.51750
       O    12.30028   -2.33927   -4.54805
      H1    12.05437   -2.36103   -5.48192
       H    10.17266   -7.81314   -7.29483
       O    10.84360   -8.43533   -6.99130
      H1    11.11221   -8.08896   -6.12574
       H    15.72285   -5.70099   -2.30109
       O    15.12870   -5.10577   -1.85832
      H1    15.62679   -4.35757   -1.58175
       H    16.67671   -6.70684    1.39127
       O    16.57801   -6.22075    2.27271
      H1    16.86831   -5.35645    1.97165
       H    11.13484   -5.43142    1.37261
       O    11.24367   -6.43056    1.51242
      H1    10.43134   -6.73353    1.08807
       H    12.51690   -0.02512    1.92878
       O    12.31992   -0.77773    2.54214
      H1    12.99761   -1.48538    2.43797
       H    14.93273   -5.36047    2.57037
       O    14.09803   -4.80925    2.50335
      H1    13.43071   -5.43979    2.20908
       H    10.77078   -4.86119    3.12163
       O    10.11467   -4.48956    3.74912
      H1    10.70638   -3.79602    4.07937

