90
frame 2 | Written by MDAnalysis XYZWriter (release 2.4.3)
       H    -8.41837   15.70436   18.21764
       O    -9.16914   16.22305   18.52866
      H1    -9.85123   16.15046   17.89727
       H    -8.43144   14.73755   14.33219
       O    -9.15825   15.39404   14.50593
      H1    -9.72690   15.22801   13.75681
       H    -2.49636   17.99811   10.71176
       O    -2.76975   18.55422   11.45124
      H1    -2.32439   18.13844   12.19629
       H     0.29989   19.97418   19.37000
       O     0.25802   19.25637   18.70975
      H1     1.10277   18.70253   18.72979
       H    -5.79178   15.47057   12.08307
       O    -5.27545   14.61542   12.22002
      H1    -4.70756   14.90871   12.92861
       H    -1.27815   14.74892   15.83548
       O    -0.64253   15.32474   15.38111
      H1    -0.72604   14.99952   14.48886
       H    -8.79891   18.67065   12.15872
       O    -9.07667   19.62668   12.40183
      H1    -9.81814   19.73773   11.79046
       H   -11.69694   17.73726   19.70620
       O   -11.53794   18.69534   19.49085
      H1   -12.22475   18.87022   18.78599
       H    -4.03720   11.79515   18.48788
       O    -3.24878   11.30218   18.71551
      H1    -3.18491   10.68829   17.94926
       H    -6.14649   10.90055   14.85861
       O    -5.95679   10.15342   15.44632
      H1    -6.32378    9.47294   14.88330
       H    -8.05833   10.34875   18.01929
       O    -8.15802   10.08489   17.11803
      H1    -7.29633   10.38861   16.71346
       H    -8.69353   18.99548   17.76856
       O    -8.39494   18.49782   16.98234
      H1    -8.63024   17.63197   17.38519
       H    -6.02903   16.85864   18.21530
       O    -6.25572   16.40908   17.36565
      H1    -5.88796   17.06383   16.80053
       H    -6.44219   13.90350   13.19093
       O    -7.21559   13.59638   13.74855
      H1    -7.84791   13.29828   13.08941
       H   -11.67307   14.77100   12.22398
       O   -10.80584   15.07905   12.51786
      H1   -10.70921   15.79716   11.79891
       H    -2.53540   13.90223   17.84379
       O    -1.72019   13.82380   17.35148
      H1    -1.74937   12.85179   17.42985
       H     0.05478   18.62033   13.85605
       O    -0.69799   19.02880   13.43337
      H1    -1.21429   19.31334   14.16166
       H    -3.89992   15.30688   14.98357
       O    -3.49674   15.91164   14.38981
      H1    -3.39457   16.71616   14.93516
       H   -11.72681   15.53437   16.64715
       O   -11.00153   16.14680   16.48569
      H1   -10.42963   15.69596   15.82785
       H    -4.98536   13.78354   16.19107
       O    -4.88437   13.41371   15.26024
      H1    -5.76887   13.38047   14.91903
       H    -7.39047   16.68516   11.26923
       O    -7.30964   16.12527   10.42914
      H1    -8.21689   16.16102   10.14351
       H    -5.17384   15.17496   17.76232
       O    -4.43339   14.51776   17.83478
      H1    -4.84341   14.08836   18.62496
       H    -1.90013   15.16309   11.52178
       O    -1.44257   15.27962   12.41392
      H1    -2.14801   15.31625   13.03638
       H    -7.20498   18.68327   15.89429
       O    -6.75095   18.79652   15.02468
      H1    -5.86100   19.00397   15.36051
       H    -7.43601   17.76598   13.74960
       O    -7.71808   17.21760   13.00358
      H1    -8.19990   16.48516   13.47862
       H    -5.75847   17.51305   10.09463
       O    -5.16332   18.21574    9.79314
      H1    -4.54279   18.23495   10.54520
       H   -11.42683   18.93167   15.07344
       O   -12.29810   18.46325   15.21972
      H1   -11.85907   17.60844   15.52377
       H    -0.76097   17.78000   18.96000
       O    -1.62791   17.40092   18.66825
      H1    -1.26677   16.69429   18.10230
       H    -3.00202   17.38268   17.13933
       O    -3.42374   17.76937   16.34136
      H1    -3.02025   18.68361   16.32448
       H    -9.77884   14.36993   19.04353
       O   -10.23375   13.56997   19.38587
      H1   -11.22018   13.88091   19.29828

