90
frame 3 | Written by MDAnalysis XYZWriter (release 2.4.3)
       H   -14.88999   14.59084    5.87318
       O   -13.88322   14.59990    5.83955
      H1   -13.62197   14.99311    4.95232
       H   -19.27542   13.02790    1.77618
       O   -19.00620   12.50858    2.52769
      H1   -18.05341   12.33831    2.35348
       H   -15.85615   14.51892    3.10620
       O   -16.85984   14.45550    3.13217
      H1   -17.26716   15.34184    2.94182
       H   -11.31783   10.29200    2.20464
       O   -11.31994   11.24464    2.19328
      H1   -10.45375   11.47676    1.82768
       H   -15.19511   10.31726    7.45820
       O   -15.97015    9.88254    7.81807
      H1   -15.56176    9.20731    8.38738
       H   -16.63486   13.83449    4.78256
       O   -16.55466   13.51830    5.70826
      H1   -17.54508   13.40288    5.92094
       H   -11.15488    8.02089    2.50895
       O   -10.88414    8.51883    1.75658
      H1   -11.55309    8.19318    1.15008
       H   -15.95796    7.45189    5.32884
       O   -15.87383    7.23837    6.22787
      H1   -15.55663    8.04054    6.67526
       H   -18.10417    9.16618    4.01550
       O   -18.67464    8.52812    3.60542
      H1   -18.74663    8.83978    2.70888
       H   -19.08704   13.03317   -0.45280
       O   -18.79008   13.90915   -0.06893
      H1   -17.85191   13.72746   -0.36014
       H    -9.10165   12.20921    3.90724
       O    -9.89569   11.98647    4.45313
      H1   -10.53929   11.85968    3.71174
       H   -14.82652   10.02206    0.42231
       O   -13.97301    9.92514    0.82629
      H1   -14.02669   10.34453    1.69191
       H   -16.19863   12.36056   -1.66912
       O   -16.09806   12.53867   -0.73970
      H1   -15.53537   13.32244   -0.72402
       H   -13.10833   15.06924    2.60545
       O   -12.75451   15.51022    3.42003
      H1   -12.74459   16.44376    3.11497
       H   -12.90066   11.46750    6.84949
       O   -13.48822   10.70109    6.82429
      H1   -13.26473   10.25775    6.01296
       H   -11.96244    8.90521    4.25433
       O   -12.25756    9.80391    4.56160
      H1   -11.36238   10.12466    4.69200
       H   -16.48158   11.69515    0.70676
       O   -16.55234   11.41697    1.64128
      H1   -15.77430   11.75568    2.10016
       H   -14.64582   16.08064   -0.79237
       O   -15.00258   15.19986   -0.84542
      H1   -14.73421   15.13721   -1.80925
       H   -18.32736    8.75057    0.41175
       O   -18.75253    9.50111    0.90309
      H1   -18.01199   10.11136    1.07651
       H    -9.33480   15.23514    4.60530
       O    -9.21865   15.36128    3.64858
      H1   -10.05447   14.95870    3.29189
       H   -15.37897    7.51246    2.78046
       O   -15.57812    8.07486    3.57629
      H1   -16.01570    8.82064    3.19917
       H   -11.53364   14.39480   -0.80678
       O   -11.10893   14.44384    0.05938
      H1   -11.15377   15.36713    0.23847
       H   -11.25361    6.95356    4.65597
       O   -11.76849    7.05271    3.84749
      H1   -12.68242    6.83467    4.15092
       H   -13.09104    7.69724   -0.38786
       O   -12.95609    7.27862    0.44877
      H1   -13.55912    7.76372    1.02951
       H   -13.70915   12.22993    2.45437
       O   -14.17687   11.81515    3.15628
      H1   -13.54552   11.28545    3.59795
       H   -18.61099   11.94808    5.57199
       O   -19.25665   12.56274    5.95280
      H1   -19.76783   12.87055    5.19457
       H   -13.99828   14.71068    0.45471
       O   -13.59777   14.15654    1.16758
      H1   -12.65256   14.25513    0.91481
       H   -13.01384   10.94051   -0.30642
       O   -12.51832   11.27244   -1.07915
      H1   -11.55671   11.21058   -0.81557
       H   -12.24158   13.60464    5.92182
       O   -11.65162   13.03860    6.37667
      H1   -11.09232   12.72352    5.61367
       H   -16.66944   11.29903    5.41656
       O   -17.30404   10.59413    5.36473
      H1   -16.99386    9.89521    6.03508

