90
frame 3 | Written by MDAnalysis XYZWriter (release 2.4.3)
       H     5.42380   -1.46190    7.09424
       O     5.42008   -2.32389    6.69622
      H1     5.17755   -2.92438    7.43659
       H     9.15860   -8.68201    9.73880
       O     9.57333   -7.89375    9.34662
      H1    10.18378   -7.64832   10.10363
       H    12.67341    0.99919   10.65489
       O    12.02037    0.66187   10.01978
      H1    11.78546   -0.20288   10.25181
       H     9.60620   -2.33387   13.49065
       O    10.32984   -2.45306   12.84740
      H1    10.93475   -1.85652   13.28119
       H     4.49664    0.03364   10.51925
       O     4.95011   -0.78542   10.24592
      H1     5.53285   -0.88194   11.05101
       H    10.47257   -1.01289    5.76324
       O    10.11558   -0.41125    6.39071
      H1     9.37442   -0.08674    5.89296
       H     5.04522   -0.22057   12.56081
       O     5.83868   -0.75753   12.70984
      H1     5.61116   -1.50790   13.31055
       H     8.53847   -4.96657    3.59983
       O     7.56866   -5.06039    3.70136
      H1     7.73679   -5.75142    4.36582
       H     6.14566   -7.69996    9.04489
       O     5.97094   -8.49125    9.58945
      H1     5.21687   -8.19117   10.11769
       H     6.62293   -2.76040    5.77573
       O     7.49189   -2.68509    5.26448
      H1     7.55509   -3.58152    4.84185
       H    10.24668   -2.51712   10.82465
       O    10.85716   -2.23166   10.15215
      H1    11.68285   -2.19336   10.60863
       H    12.24854   -7.65922   10.50430
       O    11.58157   -7.61981   11.21382
      H1    11.68333   -6.72616   11.60728
       H     8.47103   -8.40418   11.96994
       O     7.60121   -7.89789   12.03702
      H1     7.26577   -8.17564   11.21030
       H     5.16843    0.09265    6.32524
       O     5.36228    0.41358    7.19205
      H1     6.19579    0.85034    6.95553
       H     2.60324   -5.95837    8.65347
       O     1.76408   -5.85636    8.20302
      H1     1.71782   -6.71834    7.74553
       H    10.22199    0.87243    9.57618
       O     9.35506    0.85339    9.11712
      H1     8.98833   -0.02553    9.06519
       H     7.34056   -5.74228    8.63202
       O     7.55137   -6.59802    8.25379
      H1     8.33402   -7.00192    8.64363
       H     9.60685   -1.92434    7.15880
       O     9.24855   -2.83084    7.23691
      H1     8.73789   -3.06327    6.41341
       H     8.00371   -5.77031   14.50457
       O     8.11139   -5.63054   13.55928
      H1     7.92787   -6.49259   13.18514
       H     2.84387   -1.03695    7.13139
       O     2.83469   -1.91588    6.70550
      H1     3.74050   -2.09655    6.52115
       H     7.15623   -3.57121    9.53365
       O     7.91028   -4.12535    9.34199
      H1     8.37095   -3.70612    8.57687
       H    12.28063   -6.97694    8.36184
       O    12.40979   -7.89476    8.63376
      H1    11.50257   -8.17991    8.69762
       H     7.01157   -3.56200   14.56825
       O     6.24922   -3.36043   14.03471
      H1     6.47784   -3.79433   13.19573
       H    11.00625   -4.36952    7.90207
       O    11.49918   -5.19340    7.75990
      H1    11.69485   -5.12681    6.81152
       H     8.56635   -6.05532    6.96498
       O     8.91663   -6.02019    6.01286
      H1     9.82356   -5.70098    6.16727
       H     9.79904   -5.07829   12.69802
       O    10.71367   -5.08627   12.35922
      H1    10.91311   -4.14223   12.41673
       H     4.19089   -3.91884    9.57505
       O     4.84284   -3.51284    9.06816
      H1     4.90923   -2.65225    9.43933
       H     2.55712   -4.95554   11.66034
       O     2.78020   -4.05118   11.51899
      H1     2.19768   -3.76631   10.81699
       H     6.43283   -5.98307   11.70415
       O     5.46994   -6.10507   11.89657
      H1     5.57285   -6.66116   12.64205
       H    14.15555   -2.03599    7.05594
       O    13.48032   -2.73406    7.16159
      H1    13.11983   -2.50298    7.97932

