90
frame 3 | Written by MDAnalysis XYZWriter (release 2.4.3)
       H    16.07003  -16.61621   -1.55024
       O    16.63099  -15.92117   -1.92387
      H1    17.57906  -16.24502   -1.69014
       H    12.85066   -8.37607   -7.58188
       O    13.57876   -8.28394   -8.16337
      H1    14.32400   -7.84879   -7.65867
       H    17.29735   -5.64903   -4.63785
       O    17.14864   -5.97528   -3.78254
      H1    17.88567   -5.52866   -3.31231
       H    12.93814  -10.84763   -9.29469
       O    13.51481  -11.04382   -8.52585
      H1    13.67142  -10.14567   -8.11698
       H    17.57365  -12.44839   -0.44956
       O    18.52785  -12.58126   -0.65019
      H1    18.64109  -11.92154   -1.36391
       H    13.39502   -9.24960   -3.69541
       O    13.93108   -9.27969   -2.88393
      H1    13.39345   -9.87080   -2.34737
       H    15.77502   -6.58175   -7.32058
       O    15.53930   -7.00151   -6.48038
      H1    14.79559   -6.33767   -6.25431
       H    18.58481  -12.37387   -6.85088
       O    19.01627  -12.44026   -5.95967
      H1    19.21047  -13.35638   -5.98994
       H    18.75194   -3.98586   -5.97715
       O    17.97661   -4.47973   -6.30903
      H1    17.21916   -3.94659   -5.94311
       H    18.17645   -3.91654   -1.60551
       O    17.57933   -3.11848   -1.44650
      H1    17.71905   -2.67786   -2.33968
       H    16.66043   -9.51458    0.45279
       O    16.64255   -8.54016    0.52930
      H1    17.23212   -8.29919   -0.20220
       H    19.53574  -10.56632    2.72030
       O    19.05618  -10.37026    1.86537
      H1    18.71598   -9.48094    1.86659
       H    20.15437  -10.17167   -5.70083
       O    19.48697   -9.54409   -5.38816
      H1    18.67147  -10.07045   -5.46328
       H    17.05943  -12.63190   -8.40941
       O    17.64828  -11.89190   -8.51604
      H1    17.72261  -11.95898   -9.48894
       H    15.96054  -14.36309   -2.56302
       O    15.24075  -13.68681   -2.58143
      H1    15.76958  -12.92815   -2.91373
       H    14.73963   -8.55038    0.64373
       O    13.80271   -8.68533    0.48451
      H1    13.56540   -9.55331    0.87638
       H    13.71338  -12.37988   -3.02431
       O    12.94262  -11.81151   -2.79501
      H1    13.06202  -11.62082   -1.82049
       H    16.78439  -10.01122   -6.77932
       O    16.60853   -9.89267   -5.85825
      H1    16.26139   -8.97919   -5.85620
       H    18.79268   -7.24486   -8.99432
       O    18.40369   -7.44104   -9.91839
      H1    18.79785   -6.90653  -10.57301
       H    15.30035  -12.99429   -0.35596
       O    15.54621  -12.08095   -0.07479
      H1    15.57415  -12.14204    0.87767
       H    17.43857  -10.31730   -9.06587
       O    16.94118   -9.59968   -9.55048
      H1    17.61462   -8.87174   -9.54257
       H    18.40693   -6.68336   -7.14127
       O    19.01071   -7.43290   -7.39840
      H1    19.02303   -7.95432   -6.56940
       H    15.72285   -5.70099   -2.30109
       O    15.12870   -5.10577   -1.85832
      H1    15.62679   -4.35757   -1.58175
       H    18.25463   -8.90932   -1.98443
       O    18.39271   -8.21153   -1.37030
      H1    18.46941   -7.47289   -1.99051
       H    14.67157  -15.38303   -5.24251
       O    14.87865  -14.45629   -5.47655
      H1    15.16458  -14.08249   -4.62178
       H    16.67671   -6.70684    1.39127
       O    16.57801   -6.22075    2.27271
      H1    16.86831   -5.35645    1.97165
       H    15.83326  -11.10340   -4.35732
       O    16.15226  -11.33533   -3.43824
      H1    15.68069  -10.67627   -2.90955
       H    15.78299  -14.62745   -7.10375
       O    16.36675  -14.62305   -7.90866
      H1    15.79662  -15.10011   -8.55061
       H    19.09226  -10.28894   -3.67840
       O    18.63971  -10.64700   -2.83832
      H1    17.82019  -11.06886   -3.21300
       H    16.65545  -12.60514    3.18676
       O    16.71235  -11.89545    2.56847
      H1    17.57009  -11.95184    2.17580

