90
frame 3 | Written by MDAnalysis XYZWriter (release 2.4.3)
       H     1.07491   14.90512   16.53481
       O     1.35154   15.06601   17.42534
      H1     0.52861   14.99642   17.90306
       H    -8.39149   15.71229   17.93823
       O    -9.03667   16.19724   18.37979
      H1    -9.71456   16.34398   17.69657
       H    -8.61487   15.64007   14.99366
       O    -9.36986   16.25342   14.90998
      H1    -9.82555   15.92394   14.09963
       H    -3.15553   11.43472   12.29017
       O    -2.94712   11.99411   13.02761
      H1    -3.04680   12.94773   12.73099
       H    -3.44432    9.55552   18.74588
       O    -3.22771    8.59144   18.68546
      H1    -3.47694    8.34802   17.76114
       H    -6.99754   15.90933   11.79040
       O    -6.34780   15.18048   12.05638
      H1    -5.65762   15.75528   12.48383
       H    -0.70840   15.15654   15.52472
       O    -0.10145   15.38877   14.77761
      H1    -0.55297   14.93139   14.01890
       H    -4.31158   11.57886   18.56140
       O    -3.46982   11.09356   18.30317
      H1    -3.30313   11.50346   17.41458
       H    -8.06697   12.16201   12.02550
       O    -8.61346   12.72130   12.65089
      H1    -9.21921   12.04118   13.07053
       H    -5.72764   10.94478   15.77829
       O    -5.76435    9.99271   15.92681
      H1    -6.26624    9.68418   15.16188
       H    -6.66781    7.81262   13.88405
       O    -7.34207    8.32479   14.33157
      H1    -7.71184    7.69000   15.00624
       H    -7.91852   10.42653   18.23329
       O    -7.89500    9.66014   17.54090
      H1    -7.10792    9.91173   16.98757
       H    -8.77648   19.03096   17.87252
       O    -8.39182   18.72215   17.05152
      H1    -8.25161   17.76375   17.11625
       H    -5.97554   16.37342   18.04899
       O    -6.26778   15.82246   17.31955
      H1    -5.74372   16.30774   16.61316
       H    -6.96824   14.66796   13.66941
       O    -7.36381   14.46151   14.53860
      H1    -7.93405   13.75750   14.24708
       H    -1.96375   14.22614   17.64153
       O    -1.21037   14.04256   17.06539
      H1    -1.20295   13.18519   16.70998
       H    -7.65078   11.20062    9.94176
       O    -7.24890   11.16928   10.80407
      H1    -6.47195   11.79561   10.78165
       H    -4.24163   14.13435   14.22833
       O    -4.04187   14.92793   13.68903
      H1    -4.08469   15.60390   14.36597
       H    -4.23840   13.24275   10.08526
       O    -4.98189   12.85231   10.59555
      H1    -5.27217   13.59822   11.12237
       H    -4.96286   13.50127   16.26516
       O    -5.13770   12.86534   15.54780
      H1    -5.94311   13.26507   15.12539
       H    -4.80797   14.90842   17.52018
       O    -4.03720   14.32170   17.61395
      H1    -4.46106   13.71050   18.29425
       H    -1.89820   15.11432   11.53065
       O    -1.78315   14.89254   12.47930
      H1    -2.67489   14.99761   12.79702
       H    -0.32754    9.11960   17.39978
       O    -0.55481    9.19443   18.36905
      H1    -1.51083    9.09892   18.42068
       H    -7.00435   18.41739   13.84460
       O    -7.57573   17.77773   13.33835
      H1    -8.15867   17.47766   14.04664
       H     1.11016   11.50032   17.66202
       O     0.84173   12.18642   17.02980
      H1     1.06554   13.02031   17.45401
       H    -2.29220   11.72036   14.91280
       O    -2.11525   11.48914   15.79530
      H1    -1.27222   11.04494   15.81565
       H    -2.78879    9.64082   15.56330
       O    -3.37977    8.89718   15.66370
      H1    -4.31399    9.36679   15.68966
       H    -2.26606   18.25704   17.97690
       O    -2.56354   17.35057   18.09825
      H1    -1.83016   16.97135   18.55973
       H    -3.49724   17.04746   16.64665
       O    -3.96894   16.81482   15.79212
      H1    -4.11475   17.66468   15.37052
       H    -9.74819   14.42469   18.75690
       O    -9.85732   13.42741   18.96448
      H1   -10.69504   13.21338   18.60965

