90
frame 3 | Written by MDAnalysis XYZWriter (release 2.4.3)
       H     7.47299   16.31821    2.84013
       O     7.05012   15.44926    3.05131
      H1     7.83139   14.95741    3.47486
       H    17.04383   13.27963    4.85748
       O    17.48024   14.14372    4.79221
      H1    17.41856   14.51827    5.68861
       H    12.11626   14.51904    1.04253
       O    11.68644   14.52682    1.92918
      H1    11.71597   15.52222    2.18585
       H    14.80293   11.45142    5.12435
       O    15.40693   12.24270    5.16554
      H1    14.86487   12.80139    4.65640
       H    18.32941   11.67646    2.91156
       O    17.46678   11.29649    3.17680
      H1    17.78087   10.44460    3.45861
       H    15.93499   13.70470    1.82899
       O    16.60516   14.37768    1.99587
      H1    16.92901   14.25639    2.89301
       H    12.49256   17.57899    2.23130
       O    11.74816   17.15070    2.69488
      H1    12.17392   17.11614    3.58103
       H    15.04272   18.22600   -0.02462
       O    14.57904   18.50931    0.74749
      H1    15.01888   19.34935    1.09578
       H    13.67307   14.66670   -0.98761
       O    12.74961   14.76263   -0.71159
      H1    12.45672   13.89971   -1.01689
       H    11.69207   19.14855   -0.63085
       O    12.12296   18.34773   -0.30456
      H1    13.01425   18.71423   -0.15153
       H    11.39787   12.07933   -2.32287
       O    11.75823   11.96745   -1.39300
      H1    11.03220   12.29911   -0.89091
       H    11.97697   16.79563    5.54854
       O    12.65229   17.45792    5.30416
      H1    12.29840   18.21776    5.76784
       H    13.96233   11.86578    2.19493
       O    14.77791   12.43400    2.02256
      H1    15.45320   11.89830    2.41844
       H     9.67299   15.60093   -1.20741
       O     9.59109   16.48526   -0.79893
      H1    10.51578   16.61637   -0.71476
       H    14.48507   12.00453    0.25597
       O    14.56310   11.64918   -0.64011
      H1    13.62696   11.19215   -0.68749
       H     8.26765   13.63866    5.12185
       O     8.94780   13.76841    4.39100
      H1     9.58599   14.34474    4.88351
       H     9.98465   12.07135    4.48750
       O    10.19515   11.14712    4.49785
      H1    11.01741   11.28558    4.00924
       H    10.04063   17.76015    2.43590
       O     9.11718   18.01818    2.25680
      H1     9.06814   18.94011    1.90079
       H    17.12953   17.58425    3.46018
       O    17.05844   17.74593    4.44559
      H1    16.34267   17.14714    4.69450
       H    10.19211   15.25184    7.05613
       O    10.63398   15.28333    6.16779
      H1    11.34805   14.67758    6.42712
       H    11.74377   11.65634    2.20438
       O    12.46802   11.24637    2.69417
      H1    12.37593   10.26998    2.63594
       H     9.40327   12.44181    0.94446
       O    10.34464   12.33251    1.02543
      H1    10.62164   13.25849    1.32931
       H    14.11212   16.72582    5.81477
       O    15.00991   16.31567    5.81097
      H1    14.90193   15.49781    5.23606
       H    14.77568   15.86619    7.68335
       O    14.42894   15.33006    8.42918
      H1    14.02365   15.87267    9.12585
       H    14.33181   11.14674    8.33963
       O    13.41759   11.17774    7.97434
      H1    13.55969   10.64571    7.14270
       H    12.93063   12.65385    6.84747
       O    12.70635   13.54421    6.55895
      H1    13.36679   14.15553    6.99192
       H    12.82806   13.80999    4.71525
       O    13.44491   14.31929    4.12289
      H1    12.93385   14.39314    3.29244
       H    16.15417   12.48707    6.98384
       O    16.31164   12.47956    7.98733
      H1    15.75828   13.24185    8.26741
       H    12.64734   16.16273   -1.96055
       O    12.78504   16.97963   -2.46066
      H1    12.67038   17.68847   -1.76834
       H    16.59476   16.12381    1.97032
       O    16.84295   17.03538    1.91602
      H1    16.07501   17.47465    1.52440

