90
frame 6 | Written by MDAnalysis XYZWriter (release 2.4.3)
       H   -15.49440   13.46455   11.31716
       O   -15.59960   12.51478   11.03726
      H1   -16.16579   12.48208   10.25974
       H   -10.92580   13.71007   14.69536
       O   -11.27618   12.99129   14.17485
      H1   -10.66924   12.24278   14.37289
       H   -13.84284   12.15799   16.34119
       O   -13.55093   11.48170   15.76358
      H1   -12.84180   12.04599   15.35197
       H   -13.78847   14.97888   17.32045
       O   -14.42082   15.14018   16.59536
      H1   -14.38969   16.14204   16.50545
       H   -19.06198   20.03646   10.02439
       O   -18.54841   19.29344    9.55954
      H1   -19.02778   18.44312    9.70493
       H   -11.07578   16.21044   12.06795
       O   -10.78198   15.44376   11.51448
      H1   -11.52243   14.80068   11.67708
       H   -13.23619   16.89827    9.86363
       O   -13.98882   17.39742   10.24884
      H1   -13.92451   17.20093   11.22558
       H   -18.20448   16.17340    9.47713
       O   -19.07783   16.42467    9.82689
      H1   -19.66163   16.54885    9.03846
       H   -19.54022   17.16028   16.99103
       O   -18.71810   17.33343   16.47725
      H1   -18.92809   16.95002   15.61482
       H   -15.62144   18.33985   16.53634
       O   -15.28507   17.82367   15.78838
      H1   -14.36209   17.87933   15.91811
       H   -13.15019   13.97809   13.84189
       O   -13.60898   14.84691   13.94212
      H1   -13.79831   14.79674   14.90270
       H   -16.92747   11.05547   14.67839
       O   -17.84197   11.02164   14.88067
      H1   -18.05299   11.35661   15.75193
       H   -14.41706   16.39893    6.19233
       O   -14.81904   17.13528    6.64450
      H1   -15.34335   16.69130    7.31097
       H   -14.49191   10.43427   12.44341
       O   -13.92796   10.63423   11.70449
      H1   -14.42406   11.37418   11.32832
       H   -17.55460   13.17101   12.73683
       O   -17.35704   13.58258   13.60464
      H1   -17.50425   12.83210   14.22813
       H   -12.84973   16.43579   13.38235
       O   -12.79127   17.31735   12.99325
      H1   -12.89899   18.00599   13.63989
       H   -12.68517   12.64798   11.80967
       O   -12.77661   13.57829   11.61010
      H1   -12.97952   13.66069   10.69948
       H   -11.16995   15.53977    9.29487
       O   -11.71416   16.00503    8.64995
      H1   -11.02059   16.63404    8.22183
       H   -16.18631   15.26502   16.86660
       O   -17.11379   15.35509   17.19030
      H1   -17.42893   16.15180   16.69940
       H   -18.95524   13.98728    8.24557
       O   -18.64955   14.02296    7.34226
      H1   -18.94918   14.86344    6.93656
       H   -15.85849   18.76654   14.29763
       O   -16.59459   19.16657   13.76618
      H1   -16.05126   19.56089   13.06404
       H   -12.66415   18.70077    9.65129
       O   -11.82075   19.15912    9.45058
      H1   -11.08537   18.66894    9.90228
       H   -14.64363   14.78574   12.26883
       O   -15.26743   15.11918   11.62995
      H1   -15.95913   15.50977   12.23060
       H   -18.54167   14.77189   14.29760
       O   -18.94261   15.64555   14.26452
      H1   -18.56357   16.06626   13.43746
       H   -16.75829   19.30885    9.74464
       O   -15.81501   19.52852    9.45373
      H1   -15.30685   18.80359    9.82326
       H   -16.35159   15.18728    8.33611
       O   -16.38974   15.92951    8.98991
      H1   -15.86745   15.74299    9.75799
       H   -17.84975   17.09612   11.39357
       O   -17.49883   16.75717   12.20266
      H1   -17.18699   17.53382   12.65999
       H   -19.37236   12.96417   10.92424
       O   -18.82150   13.49695   10.31281
      H1   -19.14128   14.36929   10.51854
       H   -14.32320   13.74446    8.72199
       O   -13.35419   13.67232    8.91216
      H1   -12.90965   14.51665    8.57350
       H   -17.04410   13.57234    7.52623
       O   -16.07887   13.51594    7.69062
      H1   -15.80167   13.12369    6.85545

