90
frame 3 | Written by MDAnalysis XYZWriter (release 2.4.3)
       H   -14.88999   14.59084    5.87318
       O   -13.88322   14.59990    5.83955
      H1   -13.62197   14.99311    4.95232
       H   -19.27542   13.02790    1.77618
       O   -19.00620   12.50858    2.52769
      H1   -18.05341   12.33831    2.35348
       H   -15.85615   14.51892    3.10620
       O   -16.85984   14.45550    3.13217
      H1   -17.26716   15.34184    2.94182
       H   -14.30249   16.55976    9.71136
       O   -14.82398   17.35273    9.49884
      H1   -14.54138   17.58908    8.58616
       H   -15.19511   10.31726    7.45820
       O   -15.97015    9.88254    7.81807
      H1   -15.56176    9.20731    8.38738
       H   -11.23711   15.80202    9.39522
       O   -10.32913   15.53513    9.27026
      H1   -10.44132   14.55136    9.28262
       H   -16.63486   13.83449    4.78256
       O   -16.55466   13.51830    5.70826
      H1   -17.54508   13.40288    5.92094
       H   -11.05351   12.62643    9.67450
       O   -10.49622   12.94529    8.94263
      H1   -11.03025   12.92482    8.13871
       H   -13.29567   18.81113    3.51678
       O   -12.78064   18.28509    2.92474
      H1   -12.01600   18.84762    2.77413
       H   -15.47420   20.01527    4.61470
       O   -14.69650   19.45186    4.37860
      H1   -14.88299   18.74745    5.01053
       H   -17.40718   17.28802   11.25660
       O   -17.36431   16.53761   10.66800
      H1   -16.57892   16.76708   10.17552
       H    -9.44008   15.44518    7.51464
       O    -8.70070   15.71189    6.88945
      H1    -7.98456   15.44841    7.49162
       H   -13.68426   18.10945    1.42932
       O   -14.19399   17.97342    0.57325
      H1   -14.41104   18.87498    0.30602
       H   -16.86451   18.40828    5.48733
       O   -16.62574   18.39689    6.47146
      H1   -17.43916   18.25034    6.94271
       H   -19.10626   16.70853    8.99315
       O   -18.95684   17.46361    8.37369
      H1   -18.61759   18.07816    9.07556
       H    -9.10165   12.20921    3.90724
       O    -9.89569   11.98647    4.45313
      H1   -10.53929   11.85968    3.71174
       H   -13.10833   15.06924    2.60545
       O   -12.75451   15.51022    3.42003
      H1   -12.74459   16.44376    3.11497
       H   -12.90066   11.46750    6.84949
       O   -13.48822   10.70109    6.82429
      H1   -13.26473   10.25775    6.01296
       H   -14.98917   17.27935    6.76822
       O   -14.05416   17.32003    6.81907
      H1   -13.73023   16.38222    6.70944
       H   -11.96244    8.90521    4.25433
       O   -12.25756    9.80391    4.56160
      H1   -11.36238   10.12466    4.69200
       H   -16.48158   11.69515    0.70676
       O   -16.55234   11.41697    1.64128
      H1   -15.77430   11.75568    2.10016
       H    -9.33480   15.23514    4.60530
       O    -9.21865   15.36128    3.64858
      H1   -10.05447   14.95870    3.29189
       H   -17.66840   14.90334   10.84074
       O   -18.04889   13.98000   10.96203
      H1   -18.31086   13.79572   10.06465
       H   -13.70915   12.22993    2.45437
       O   -14.17687   11.81515    3.15628
      H1   -13.54552   11.28545    3.59795
       H   -18.10433   17.26848    4.06569
       O   -17.38312   17.83677    3.80873
      H1   -17.85127   18.63903    3.54346
       H   -18.61099   11.94808    5.57199
       O   -19.25665   12.56274    5.95280
      H1   -19.76783   12.87055    5.19457
       H   -13.99828   14.71068    0.45471
       O   -13.59777   14.15654    1.16758
      H1   -12.65256   14.25513    0.91481
       H   -12.23814   18.42662    6.56976
       O   -11.88042   19.29356    6.68439
      H1   -12.63958   19.85052    6.98174
       H   -12.24158   13.60464    5.92182
       O   -11.65162   13.03860    6.37667
      H1   -11.09232   12.72352    5.61367
       H   -16.66944   11.29903    5.41656
       O   -17.30404   10.59413    5.36473
      H1   -16.99386    9.89521    6.03508

