90
frame 3 | Written by MDAnalysis XYZWriter (release 2.4.3)
       H     8.17480  -16.11335    4.57209
       O     8.03525  -15.54547    5.31686
      H1     8.79887  -15.01433    5.29260
       H     6.10280  -19.08913    6.04256
       O     5.79170  -18.36750    6.53956
      H1     6.52804  -18.22028    7.08815
       H     7.97257  -12.97467    3.25119
       O     8.95392  -12.88247    3.15597
      H1     9.06262  -11.87802    3.22236
       H     9.65153  -16.58608    7.74223
       O     8.72828  -16.56066    7.64937
      H1     8.53013  -16.34485    6.69832
       H     2.16259  -14.07882    7.34891
       O     1.21004  -14.02975    7.30778
      H1     1.03151  -14.26128    6.36506
       H     4.22990  -11.76688    7.53130
       O     4.52513  -11.97867    8.43432
      H1     4.33953  -11.08552    8.79929
       H     9.09381   -9.81866    4.27731
       O     8.65068  -10.17889    3.51658
      H1     7.70289  -10.12784    3.78772
       H     7.01571  -10.23890    7.39336
       O     6.10643  -10.37037    6.92011
      H1     6.44997  -10.94201    6.21260
       H    10.45271  -10.24831    9.68562
       O    11.04768  -10.51987    8.91272
      H1    10.36293  -10.76339    8.26634
       H     4.79837   -9.34745    6.12236
       O     4.02677   -8.91789    5.78968
      H1     3.36389   -9.55541    5.60789
       H     4.49675  -17.43891    7.54190
       O     3.96843  -16.95577    8.20734
      H1     4.56242  -17.12207    8.98152
       H     3.46597  -17.89750    4.70806
       O     3.44136  -16.92647    4.56018
      H1     3.90460  -16.49660    5.29069
       H    10.00037   -7.92115    5.65622
       O     9.78905   -8.88098    5.72953
      H1    10.73341   -9.10782    5.88870
       H     7.30718  -13.02801    6.48661
       O     7.83399  -12.32675    6.03603
      H1     8.11131  -12.68083    5.17041
       H     5.26525  -15.59112    1.60518
       O     5.40123  -15.88431    2.52292
      H1     4.58882  -16.25419    2.82953
       H     5.92729  -11.66644    3.28563
       O     5.38077  -10.91851    3.42756
      H1     5.43096  -10.53774    2.50691
       H     8.45497  -11.28653    7.11943
       O     8.64473  -10.52612    7.72463
      H1     8.85156   -9.79025    7.12904
       H     5.00978  -13.82936   10.69271
       O     4.19992  -13.39994   11.01451
      H1     3.93371  -12.86841   10.19406
       H     7.47808  -14.49477   10.91101
       O     6.59553  -14.76619   11.12341
      H1     6.80475  -14.94416   12.06636
       H     6.09792  -13.98796    4.43556
       O     6.52390  -13.63439    3.62839
      H1     6.47619  -14.38779    3.02918
       H    11.03466  -15.05014    4.53007
       O    10.76701  -14.41710    5.25174
      H1    10.91687  -13.52365    4.95131
       H     6.53058  -16.97946    3.19006
       O     7.47348  -17.40215    3.35448
      H1     7.50386  -17.82235    2.47380
       H     3.90109  -15.57714    7.35978
       O     3.98997  -14.81389    6.75274
      H1     4.98406  -14.85474    6.63239
       H     9.42906  -10.48838   11.64650
       O     9.05756  -10.01403   10.85800
      H1     8.30651  -10.56930   10.70528
       H    13.11092  -14.07383    7.04242
       O    13.23981  -14.81259    6.47219
      H1    12.38322  -14.94543    6.07186
       H     9.41366  -13.61907    1.63738
       O    10.07010  -13.99730    0.99045
      H1     9.57598  -13.90985    0.13347
       H     8.77679  -16.57986   10.68740
       O     9.16755  -15.76544   10.35033
      H1     9.02198  -15.69240    9.41754
       H     6.94733  -14.70228    8.04788
       O     6.40669  -14.08470    7.51833
      H1     5.87488  -13.61486    8.17374
       H     8.02973  -18.11203    5.11658
       O     8.64215  -18.50692    5.81075
      H1     8.63788  -17.89483    6.54116
       H     3.42351   -9.67822    9.82965
       O     3.49005   -9.52081    8.85623
      H1     4.40940   -9.33648    8.72188

