90
frame 6 | Written by MDAnalysis XYZWriter (release 2.4.3)
       H   -17.85259   -2.88230  -12.18687
       O   -17.69136   -2.20719  -12.88908
      H1   -17.35652   -2.62533  -13.68529
       H   -18.32573    0.20847  -14.70292
       O   -18.16660    0.85232  -14.00659
      H1   -17.35699    1.40323  -14.26385
       H   -16.48179    0.31724  -12.60094
       O   -15.59411    0.70616  -12.64942
      H1   -15.30668    0.46677  -13.51945
       H   -13.72768   -0.01474  -15.94831
       O   -14.63603    0.06781  -16.22361
      H1   -14.86956    0.90538  -15.77314
       H   -16.35529   -5.88609  -13.88635
       O   -16.96555   -5.18773  -14.19215
      H1   -17.81168   -5.57267  -14.31372
       H   -15.99328   -2.52513  -12.54101
       O   -15.10946   -2.85036  -12.26860
      H1   -15.15726   -3.85198  -12.16827
       H   -16.46216    6.31472  -17.50174
       O   -16.38394    5.35723  -17.66275
      H1   -15.37237    5.26594  -17.70868
       H   -18.79338   -0.68027  -16.56345
       O   -19.19627   -1.37185  -16.05543
      H1   -18.67895   -2.18282  -16.25722
       H   -17.92945    1.75168  -16.88967
       O   -18.28818    0.87412  -17.13901
      H1   -18.13471    0.78650  -18.11666
       H   -14.83783    1.89202  -11.39516
       O   -14.37675    2.36188  -10.64057
      H1   -15.02288    2.81483  -10.05589
       H   -16.16187   -7.37027  -16.92205
       O   -17.08579   -7.65213  -16.79495
      H1   -17.21622   -8.42680  -17.40292
       H   -13.28787   -2.01353  -13.08426
       O   -12.39278   -2.17145  -13.40936
      H1   -12.09901   -1.42783  -13.94482
       H   -11.49306   -7.51473  -16.46283
       O   -11.60679   -6.63108  -16.14927
      H1   -10.89327   -6.07512  -16.54408
       H   -16.20383   -0.54375  -19.14690
       O   -15.26842   -0.62786  -18.96364
      H1   -15.32015   -0.53578  -18.02644
       H   -16.32758   -4.82312  -18.34135
       O   -15.52989   -4.21500  -18.30401
      H1   -15.28129   -3.93009  -19.17190
       H   -10.23139   -3.05948  -15.86372
       O    -9.63859   -3.58489  -15.36771
      H1   -10.03054   -3.70120  -14.49641
       H   -10.51687    4.19826  -17.88329
       O   -10.07297    3.41782  -17.47934
      H1   -10.38297    3.14488  -16.57203
       H   -14.43852   -5.43429  -16.94290
       O   -14.36549   -6.34158  -16.52719
      H1   -13.38422   -6.55220  -16.39672
       H    -9.68637    0.31842  -19.13420
       O    -9.36430    1.23841  -19.20768
      H1    -9.59717    1.72608  -18.38381
       H   -15.18247    4.78020  -13.07435
       O   -14.37757    4.22173  -13.13370
      H1   -14.59979    3.57420  -12.47752
       H   -16.66032   -3.89461  -15.60672
       O   -16.66125   -2.97841  -15.96706
      H1   -16.14887   -3.13140  -16.78286
       H    -9.50021    2.22853  -14.85575
       O   -10.46117    2.41382  -14.86119
      H1   -10.50330    2.95549  -14.04486
       H   -18.43876   -5.09383  -17.90030
       O   -17.83224   -5.45286  -18.50112
      H1   -17.64376   -6.32901  -18.20353
       H   -14.83524   -3.11538  -15.97197
       O   -13.91986   -3.36328  -15.67678
      H1   -13.82686   -3.02527  -14.76629
       H   -11.11012   -1.75454  -17.97777
       O   -11.26354   -2.06965  -17.07969
      H1   -12.07309   -2.56386  -17.06511
       H   -13.56821    4.26232  -18.81496
       O   -13.84914    4.69117  -17.99881
      H1   -13.45489    4.22352  -17.21426
       H   -14.06982   -8.21658  -19.05790
       O   -13.92634   -7.62292  -19.80617
      H1   -13.65149   -6.76865  -19.39784
       H   -17.82887    3.87271  -15.63524
       O   -17.77798    3.51968  -16.52617
      H1   -17.31399    4.31948  -17.01231
       H   -11.53147   -0.72109  -15.96360
       O   -11.79272   -0.06757  -15.31065
      H1   -11.20890    0.66495  -15.43571
       H   -15.50992    3.10397  -15.92275
       O   -15.47085    2.45450  -15.20091
      H1   -14.97958    2.97913  -14.52398

