90
frame 3 | Written by MDAnalysis XYZWriter (release 2.4.3)
       H    15.93936   17.00119  -14.07394
       O    15.33279   16.69091  -13.35137
      H1    14.38723   16.99237  -13.65074
       H    13.99472   16.90929   -5.43981
       O    14.36987   17.49607   -4.77815
      H1    13.80487   17.28248   -3.97807
       H    16.44840   17.07117   -6.13594
       O    16.24501   17.64752   -6.90889
      H1    17.06727   17.64237   -7.45637
       H    11.26366   15.36419  -12.55572
       O    10.67278   14.85080  -11.97595
      H1     9.87100   15.26628  -12.24265
       H    10.89016   18.66643  -10.57197
       O    11.48802   18.03483  -10.14181
      H1    12.36206   18.15121  -10.62534
       H    10.49720   13.97253   -6.87072
       O    11.10548   14.20622   -6.12901
      H1    10.53411   14.88117   -5.63822
       H    11.76198   15.92087   -9.73290
       O    11.79404   15.47527   -8.88113
      H1    11.83135   16.24494   -8.35879
       H    11.13604   13.41182   -4.63835
       O    11.05702   12.66150   -3.99161
      H1    10.24628   12.25185   -4.28451
       H    14.60122   17.10231  -11.49975
       O    14.15769   17.46769  -10.76756
      H1    14.54881   16.94192  -10.10680
       H    17.55354   11.65875   -7.08567
       O    18.17261   12.27705   -7.46570
      H1    17.87488   13.18569   -7.28626
       H    14.98545   13.97102  -14.57752
       O    14.49605   13.70944  -13.84007
      H1    14.68323   14.46408  -13.31166
       H    17.16551   14.12090   -3.53788
       O    17.72405   13.77931   -2.83651
      H1    17.26975   12.94476   -2.64372
       H    18.61069   15.73956  -14.24769
       O    18.84727   16.01976  -13.37545
      H1    18.09535   15.64287  -12.89624
       H    18.39919   15.02598   -9.84347
       O    17.50525   14.86162  -10.26095
      H1    17.45070   13.84159  -10.17627
       H    18.93306   18.42276  -13.09300
       O    18.94157   18.82044  -12.21345
      H1    18.00609   19.01621  -12.08195
       H    12.96719   13.58230   -8.36909
       O    13.00204   12.63340   -8.38997
      H1    12.56310   12.39769   -9.20308
       H    10.08626   17.42822   -7.16841
       O    10.44370   17.84694   -6.34674
      H1    10.01237   17.14884   -5.68819
       H    11.39524   13.13820  -11.22036
       O    11.35803   12.22794  -10.98107
      H1    10.46611   12.03507  -11.25091
       H    18.07252   14.92830   -6.29757
       O    17.53264   14.74670   -7.05659
      H1    16.65411   14.76968   -6.66062
       H    11.42255   19.57189   -7.12166
       O    11.95657   19.79207   -7.87464
      H1    11.65327   19.14210   -8.56767
       H    14.70170   13.17852   -4.56697
       O    15.18581   13.98244   -4.71070
      H1    14.60886   14.44680   -5.36832
       H    16.27446   15.00933   -1.76672
       O    15.29609   15.21210   -1.94808
      H1    15.18358   14.80557   -2.84334
       H    12.65100   14.77700   -6.51194
       O    13.54459   15.21796   -6.46017
      H1    13.72846   15.30066   -7.41369
       H    13.72943   11.41350   -7.55778
       O    13.99663   10.58013   -7.07121
      H1    13.35164    9.96752   -7.52181
       H    19.00713   18.86570   -8.31975
       O    18.41416   18.13570   -8.61067
      H1    18.77537   17.78753   -9.50843
       H    12.86191   11.91881   -4.47217
       O    13.85332   11.72399   -4.49850
      H1    14.07821   11.33367   -5.37146
       H    18.41420   12.09456  -10.54507
       O    17.59316   12.20633  -10.01699
      H1    18.04641   12.17333   -9.09936
       H    12.64734   16.16273   -1.96055
       O    12.78504   16.97963   -2.46066
      H1    12.67038   17.68847   -1.76834
       H    19.01813   17.40573   -4.45793
       O    19.30054   18.32782   -4.52358
      H1    18.47577   18.82911   -4.66270
       H    15.96642   15.60745   -8.97341
       O    15.00410   15.81683   -8.78998
      H1    15.11005   16.50191   -8.08635

