90
frame 6 | Written by MDAnalysis XYZWriter (release 2.4.3)
       H     1.41965  -11.46089   -6.82400
       O     1.11472  -12.12027   -7.45278
      H1     0.67028  -12.78092   -6.87190
       H    -1.51945   -8.60160   -2.38910
       O    -0.75317   -9.05996   -2.84218
      H1    -1.11168   -9.27715   -3.75717
       H    -0.41061   -9.16519  -11.22475
       O     0.49255   -9.16697  -11.53799
      H1     0.45387   -9.56066  -12.43293
       H     2.74704  -11.14673   -5.04363
       O     1.79397  -10.86643   -5.14170
      H1     1.28458  -11.50248   -4.64765
       H     4.76445  -13.41381   -2.53181
       O     4.09357  -12.70510   -2.78951
      H1     3.57115  -13.23805   -3.38035
       H     3.23093   -9.36151   -8.37606
       O     2.96504   -8.49176   -8.64357
      H1     3.72597   -8.06967   -9.07046
       H    -1.10838  -14.52336   -5.65540
       O    -0.79002  -13.58684   -5.80374
      H1    -1.47076  -12.96613   -6.15991
       H    -0.24349  -12.95721   -4.22139
       O     0.59124  -12.86007   -3.70064
      H1     0.37649  -13.15551   -2.80251
       H     6.32219  -16.04215   -6.03354
       O     5.64560  -16.70889   -5.98203
      H1     4.82833  -16.41369   -6.42097
       H    -4.18620  -11.05240   -3.45803
       O    -3.82757  -11.45108   -4.31615
      H1    -4.53012  -11.63503   -4.92610
       H     4.82568  -13.09797   -7.73333
       O     5.33631  -12.91450   -6.96012
      H1     4.78777  -12.25048   -6.57334
       H     4.75007  -10.42374   -4.70604
       O     4.28037  -11.21834   -5.08384
      H1     4.28286  -11.86568   -4.34326
       H     2.36521  -11.62846   -8.81332
       O     3.23128  -11.43259   -9.06701
      H1     3.16122  -11.33317  -10.04305
       H    -4.53217  -14.55676   -7.77504
       O    -4.31400  -15.27772   -7.17738
      H1    -4.61864  -15.02295   -6.31440
       H    -2.96441  -13.88769  -11.42227
       O    -2.10780  -14.30813  -11.32617
      H1    -1.83897  -13.82617  -10.51801
       H     2.22764   -8.53884   -6.95871
       O     1.49589   -8.46894   -6.35446
      H1     1.49299   -9.29664   -5.81652
       H    -0.30330  -11.39962  -10.37309
       O    -0.45444  -12.14963   -9.77972
      H1     0.18212  -12.07916   -9.04302
       H    -2.58964  -15.72540   -6.65530
       O    -1.88228  -16.09999   -6.09113
      H1    -1.22951  -16.47145   -6.68012
       H    -3.51759  -12.25594   -8.44272
       O    -4.27369  -12.79074   -8.89661
      H1    -4.98749  -12.16317   -9.07440
       H    -1.41573  -11.82247   -8.39301
       O    -2.19844  -11.63609   -7.73059
      H1    -1.98982  -10.83367   -7.18413
       H    -3.89562  -14.02382   -4.42841
       O    -4.16724  -14.88519   -4.09047
      H1    -4.30202  -14.86947   -3.12636
       H    -0.82407  -13.12613   -0.81153
       O    -0.27679  -13.82665   -1.24546
      H1     0.42231  -14.09891   -0.63096
       H     2.76722  -15.30312   -3.64261
       O     2.51840  -14.53170   -4.24379
      H1     1.69789  -14.13237   -3.96533
       H     0.69655  -16.36606   -7.31717
       O     0.22320  -17.16071   -7.45077
      H1     0.14815  -17.22988   -8.44865
       H     2.82959  -14.49242  -10.18314
       O     2.06538  -15.09630  -10.18894
      H1     1.24575  -14.64290  -10.33367
       H     4.92706  -13.23161  -10.08722
       O     4.58152  -14.05624   -9.64119
      H1     5.04145  -14.69403  -10.22318
       H     2.75484  -14.73118   -7.62310
       O     2.39879  -15.38481   -7.04542
      H1     2.50642  -15.04105   -6.12793
       H     0.51757   -7.63748   -7.78069
       O     0.15390   -6.73105   -8.01471
      H1    -0.54225   -6.85176   -8.71138
       H    -2.96620  -10.35026   -5.18588
       O    -2.29491   -9.81505   -5.63269
      H1    -2.82381   -9.29694   -6.21545
       H     2.56364  -11.44754  -12.44506
       O     2.67284  -10.95973  -11.63379
      H1     1.97351  -10.27994  -11.55922

