90
frame 0 | Written by MDAnalysis XYZWriter (release 2.4.3)
       H     0.60250   -0.85471    4.91952
       O     0.14878   -0.57603    4.06845
      H1    -0.76172   -0.70857    4.35474
       H    -1.96458   -4.89480   -0.14083
       O    -1.67163   -5.74096    0.33890
      H1    -2.50818   -6.04573    0.67930
       H     0.50935   -3.87328    5.67724
       O     1.25591   -4.52676    5.65572
      H1     1.54481   -4.65269    6.61258
       H    -5.07850   -6.31688    4.09823
       O    -5.47186   -5.55477    3.63712
      H1    -5.60878   -4.94563    4.39758
       H    -2.70481  -11.63134    6.08900
       O    -2.72839  -10.78770    5.59883
      H1    -1.79886  -10.62217    5.70648
       H    -3.34736   -8.19166    4.99368
       O    -3.63228   -7.69504    4.18937
      H1    -3.05152   -6.95098    4.16498
       H    -0.66938   -6.10063    4.24467
       O    -1.26833   -5.45230    4.60817
      H1    -0.60440   -5.13036    5.34700
       H    -2.52980  -10.53926    2.51578
       O    -1.91556   -9.83829    2.78562
      H1    -2.49558   -9.01291    2.84672
       H    -0.90735   -7.73032    7.13927
       O    -1.75068   -7.46613    7.49635
      H1    -1.97103   -6.56015    7.17829
       H     5.08058   -3.91944    2.35651
       O     4.27223   -3.46511    2.65217
      H1     3.75301   -4.26644    2.89862
       H     1.57580   -8.07594    6.86680
       O     0.82135   -7.58815    6.41063
      H1     1.08027   -7.64706    5.45279
       H    -3.44463   -3.07184    1.50030
       O    -3.89890   -3.26750    0.65264
      H1    -4.76363   -2.82738    0.76853
       H     3.42854   -8.10356   -0.45723
       O     3.74736   -8.62990    0.33134
      H1     3.32763   -8.12479    1.06507
       H    -4.84925   -5.28048    0.70735
       O    -4.83392   -6.20559    0.89308
      H1    -5.26418   -6.21388    1.74570
       H    -3.12410  -10.48842    7.62172
       O    -3.06642   -9.78299    8.26673
      H1    -2.60715   -9.06850    7.69773
       H    -1.94484   -6.29165   -2.43276
       O    -1.05055   -6.53767   -2.08842
      H1    -1.33095   -6.23837   -1.12371
       H     0.10440  -10.57610    7.59305
       O    -0.37207  -10.13043    6.88584
      H1     0.31070   -9.54003    6.60022
       H    -3.22009   -0.46284    4.35101
       O    -2.58081   -1.07901    4.66308
      H1    -2.79199   -1.92815    4.35886
       H     2.41878   -5.51823    8.80998
       O     1.61921   -5.21263    8.33459
      H1     1.42554   -5.99762    7.83571
       H    -0.22160   -1.42560    1.15674
       O     0.03123   -2.11869    1.83638
      H1     0.01177   -1.50929    2.56644
       H    -1.65327   -3.18534    2.71227
       O    -2.49021   -3.23867    3.16633
      H1    -2.46032   -4.24873    3.25839
       H     0.27467   -5.39654    9.70816
       O    -0.64407   -5.46628    9.83905
      H1    -0.95593   -5.24780    8.94492
       H     3.27484   -4.58401   -0.68954
       O     2.48380   -4.82030   -0.19864
      H1     2.36424   -4.00863    0.37257
       H     3.31385   -7.32036    3.53143
       O     3.99235   -8.05665    3.30454
      H1     3.92674   -8.66158    4.08849
       H    -4.30811   -6.39387    7.96658
       O    -4.09437   -5.63545    7.39292
      H1    -4.98717   -5.38516    7.01637
       H    -0.37868  -10.49130    0.11955
       O     0.00088   -9.81343    0.74215
      H1    -0.76556   -9.73392    1.31386
       H    -0.51212   -8.45096    3.31660
       O     0.07764   -7.72173    3.47088
      H1     0.17955   -7.41782    2.59304
       H    -2.32109   -4.17034    6.64293
       O    -1.43946   -4.36073    7.05291
      H1    -1.36076   -3.58341    7.64390
       H     1.91287   -5.32340    3.80278
       O     2.68993   -5.68453    3.31300
      H1     2.29514   -6.05916    2.48182
       H     1.29654   -7.72639    0.80696
       O     1.35784   -6.87567    1.24852
      H1     1.65289   -6.26227    0.50833

