90
frame 2 | Written by MDAnalysis XYZWriter (release 2.4.3)
       H   -18.83460  -16.18509    7.11810
       O   -19.47092  -15.61279    7.64391
      H1   -19.04187  -14.74506    7.58668
       H   -16.60813   -6.81278    0.28066
       O   -16.14993   -6.29783    0.98032
      H1   -15.75600   -7.00584    1.49757
       H   -12.17866  -15.77016    6.50428
       O   -12.85600  -15.35122    7.07437
      H1   -12.63807  -14.41230    6.98981
       H   -12.72850   -7.02994    4.89125
       O   -12.91464   -6.17292    4.45759
      H1   -13.86379   -6.22435    4.24393
       H   -19.48982  -11.52300    2.73967
       O   -19.68900  -10.98870    1.91941
      H1   -19.61587  -10.13820    2.34324
       H   -17.44853  -13.34568    6.69736
       O   -18.38987  -13.09834    6.97714
      H1   -18.30397  -12.18842    7.24741
       H   -12.71741  -10.75245   -0.85026
       O   -13.06037  -11.34788   -0.16221
      H1   -13.64763  -11.92216   -0.68837
       H   -19.71905   -8.52796    6.93304
       O   -18.85118   -8.25149    7.17755
      H1   -18.45947   -8.18308    6.31052
       H   -17.61785   -9.07062    4.77528
       O   -17.26515   -8.16676    4.88807
      H1   -17.94214   -7.71456    4.40971
       H   -17.46940  -10.54434    8.69595
       O   -17.46323  -10.53950    7.75359
      H1   -18.00082   -9.74420    7.53080
       H   -16.02596   -8.16374    3.62760
       O   -15.26523   -7.76419    3.12717
      H1   -15.12158   -8.57799    2.59817
       H   -16.31546  -14.22016    9.60523
       O   -15.54089  -14.66044    9.17158
      H1   -15.86129  -15.56850    9.42782
       H   -15.38611  -10.09907    7.67541
       O   -14.72461  -10.42797    8.29114
      H1   -15.15038  -11.08575    8.77346
       H   -14.24966  -13.95850    0.42681
       O   -14.52103  -13.79276   -0.47301
      H1   -15.48673  -13.76253   -0.44641
       H   -18.16487  -11.01596    0.89852
       O   -17.38091  -11.01521    0.33368
      H1   -17.59873  -11.73649   -0.30089
       H   -18.53260  -13.52213    9.76218
       O   -17.58012  -13.27609    9.92909
      H1   -17.54852  -12.41302    9.58636
       H    -9.61712  -10.83110    3.31129
       O    -9.80335  -11.73337    3.00252
      H1    -9.65071  -12.25433    3.77323
       H   -14.03049  -10.23438    0.89789
       O   -14.70178   -9.99046    1.58875
      H1   -15.48068  -10.28747    1.15522
       H   -13.78963   -7.71257    6.82442
       O   -13.85858   -6.97690    7.47209
      H1   -14.40069   -6.28501    7.10705
       H   -14.28454  -14.79558    3.47299
       O   -14.77598  -15.15309    4.25505
      H1   -14.08647  -15.05590    4.98772
       H   -10.81014  -13.08691    5.54514
       O   -11.68942  -13.00641    5.94189
      H1   -12.24437  -12.89476    5.18677
       H   -15.70125  -14.28040    7.38826
       O   -15.91924  -13.71221    6.58642
      H1   -15.14610  -13.08944    6.60185
       H   -16.15022  -11.80502    4.65471
       O   -15.33551  -11.48329    5.10539
      H1   -14.68703  -11.73167    4.46440
       H   -18.62505  -13.64770    3.68116
       O   -18.48657  -12.69804    3.78817
      H1   -18.71961  -12.58488    4.75928
       H   -12.43867   -9.01811    6.50634
       O   -12.87679   -8.85549    5.63034
      H1   -13.49990   -9.59024    5.53810
       H   -12.22237  -11.32711    2.88292
       O   -13.00934  -11.60641    3.35811
      H1   -13.58911  -11.29497    2.67618
       H   -11.61326  -10.54901    7.41537
       O   -11.71812   -9.80678    7.95093
      H1   -12.60165   -9.89033    8.32523
       H   -15.92101  -16.50962    4.25797
       O   -16.54465  -17.26543    4.13428
      H1   -16.85112  -17.26214    5.04604
       H   -12.41441  -13.93477    1.78729
       O   -13.37573  -13.84820    2.03991
      H1   -13.28112  -12.98134    2.52888
       H   -18.02385  -15.69416    4.01997
       O   -18.81916  -15.36689    3.56571
      H1   -19.52875  -15.59123    4.25358

