90
frame 3 | Written by MDAnalysis XYZWriter (release 2.4.3)
       H    -3.81461   17.39304  -12.18037
       O    -4.38435   17.74171  -12.84627
      H1    -4.28745   16.98107  -13.47661
       H    -5.62785   17.81477   -8.15737
       O    -4.71424   18.05342   -8.01701
      H1    -4.81063   18.77872   -7.44908
       H    -3.32219   12.39539   -7.97559
       O    -2.74027   11.82465   -8.39500
      H1    -1.90670   12.18758   -8.01377
       H    -5.14048   16.69408   -5.07015
       O    -4.27576   16.43072   -4.65288
      H1    -4.58152   15.91648   -3.84201
       H    -6.67543   12.59515   -7.27880
       O    -6.99489   13.47969   -7.35551
      H1    -6.82247   13.73788   -6.42498
       H    -7.23930   17.68261   -6.14801
       O    -6.91394   17.28863   -5.28607
      H1    -7.38500   16.39714   -5.38883
       H    -3.59758   14.86899  -12.08442
       O    -4.37804   14.33738  -12.20317
      H1    -4.37039   14.34555  -13.18152
       H    -3.58070   17.90856   -4.75518
       O    -3.41410   18.92663   -4.78950
      H1    -4.16995   19.24950   -4.21840
       H    -6.02749   11.82491   -9.34599
       O    -5.61646   12.32856  -10.04025
      H1    -6.15238   12.08881  -10.80494
       H    -1.99224   15.99995   -5.60532
       O    -1.12821   16.38755   -5.29990
      H1    -1.07386   17.09364   -5.96112
       H    -6.09510   14.95421   -2.47346
       O    -5.45499   14.43547   -2.95555
      H1    -5.08432   13.88470   -2.25291
       H     1.24739   14.73676   -6.91854
       O     0.50092   15.33136   -7.24906
      H1     0.00462   15.53591   -6.44798
       H    -7.38725   19.01564   -8.30535
       O    -7.44015   18.18805   -7.82923
      H1    -8.00705   17.68317   -8.45205
       H     0.02655   12.58086   -8.21471
       O    -0.45430   12.63759   -7.35044
      H1    -0.54481   13.66337   -7.43563
       H    -2.37013   13.12140   -4.45940
       O    -1.89380   12.53423   -3.85620
      H1    -2.59348   12.14818   -3.37187
       H   -10.66206   16.88530   -6.98254
       O    -9.67595   16.69211   -6.92949
      H1    -9.33781   17.41500   -6.35800
       H    -3.77522   16.60822   -8.18209
       O    -3.44905   15.64620   -8.29531
      H1    -4.24123   15.26166   -8.72655
       H    -3.09271   14.40324   -6.81064
       O    -2.97996   14.36437   -5.83920
      H1    -3.59048   15.06582   -5.59123
       H    -5.36323   14.99404  -10.62621
       O    -5.68215   15.04689   -9.69416
      H1    -5.81430   14.05535   -9.43180
       H    -8.24573   14.12163   -5.15301
       O    -7.38514   14.58379   -5.00237
      H1    -7.08115   14.12561   -4.19565
       H    -7.48711   15.34742   -9.82507
       O    -8.02735   16.13757   -9.97729
      H1    -7.48896   16.68166  -10.57343
       H    -1.76337   17.17771  -10.98831
       O    -2.58828   16.72708  -11.16959
      H1    -2.94470   16.63102  -10.24416
       H    -1.01821   18.49136   -2.99798
       O    -1.03218   17.57951   -2.62524
      H1    -1.11354   17.03447   -3.41487
       H    -8.60648   13.71493   -7.61146
       O    -9.50937   14.02857   -7.39403
      H1    -9.42100   14.99850   -7.30697
       H     0.05869   12.43340  -10.70213
       O    -0.14889   13.27559  -10.15348
      H1    -1.05808   13.45138  -10.41340
       H    -5.46757   11.86293   -3.93561
       O    -5.21293   11.89137   -4.86272
      H1    -4.42327   12.44464   -4.80738
       H    -3.90989   12.50768  -11.05384
       O    -3.00619   12.06744  -11.00367
      H1    -2.96011   11.96646  -10.03126
       H    -0.82942   19.39183   -7.64548
       O    -0.47289   18.67625   -7.11385
      H1     0.30998   18.48135   -7.61562
       H    -6.79638   18.83731  -11.34658
       O    -6.52781   17.92130  -11.25501
      H1    -5.56280   18.02797  -11.38705
       H     1.65921   16.94449   -7.55979
       O     2.22881   17.59429   -8.00247
      H1     2.02194   17.49507   -8.99167

