90
frame 3 | Written by MDAnalysis XYZWriter (release 2.4.3)
       H    13.93487  -16.51109  -18.29723
       O    14.75613  -16.54107  -18.82612
      H1    14.53181  -17.19051  -19.49007
       H    15.85624  -19.11102  -18.79204
       O    15.75247  -19.36849  -19.76624
      H1    16.16296  -18.63808  -20.16204
       H     6.46888  -19.46230  -14.17094
       O     5.70350  -19.33111  -13.61837
      H1     5.13384  -18.80152  -14.31096
       H    14.78236  -19.59055  -17.14137
       O    15.70088  -19.24574  -17.04653
      H1    15.43246  -18.33691  -16.98898
       H    12.07346  -12.42248  -20.15290
       O    11.82248  -11.66186  -19.57125
      H1    12.09400  -12.00803  -18.71608
       H     5.11736  -17.37922  -16.39746
       O     4.50327  -17.66621  -15.70768
      H1     4.46636  -16.78933  -15.20763
       H    15.42343  -16.40538  -15.18733
       O    14.66337  -16.79700  -14.65681
      H1    15.03983  -17.44255  -14.00051
       H    11.21280  -13.63552  -15.63710
       O    11.99737  -14.12076  -15.82672
      H1    12.32637  -14.31231  -14.91710
       H     9.27744  -17.50340  -13.90902
       O     8.56338  -16.90620  -13.57846
      H1     8.75200  -16.88829  -12.63448
       H    16.55078  -19.88652  -14.10801
       O    16.42604  -19.10832  -13.53861
      H1    15.64892  -19.41921  -12.98806
       H    11.32118  -15.78479  -10.68829
       O    11.37274  -15.39384  -11.56632
      H1    12.24540  -15.00993  -11.65274
       H    12.02333  -17.05528  -12.63469
       O    12.54374  -17.65271  -13.23077
      H1    13.22681  -17.02393  -13.50239
       H     6.54278  -14.72814  -11.96726
       O     6.46420  -15.11520  -12.90903
      H1     7.21392  -15.74174  -12.88782
       H    18.05785  -15.07390  -17.92710
       O    18.23172  -15.22609  -18.87878
      H1    17.89250  -14.43819  -19.28014
       H    14.10330  -13.86849  -13.88939
       O    13.47676  -14.57300  -13.55341
      H1    13.96487  -15.38899  -13.84582
       H     9.19815  -12.16351  -16.29456
       O     8.97246  -12.80186  -15.59719
      H1     8.15553  -12.46691  -15.25885
       H    12.47878  -10.81247  -16.58909
       O    11.57974  -10.65365  -16.23380
      H1    11.05725  -10.66307  -17.05069
       H     8.68539  -15.29029  -16.01747
       O     7.81502  -15.73707  -16.07630
      H1     7.91206  -16.24993  -15.26637
       H    17.83409  -16.94041  -15.77396
       O    17.27615  -16.42342  -16.31272
      H1    17.21500  -16.96069  -17.11660
       H     6.52568  -14.40455  -15.59961
       O     5.72786  -13.81673  -15.80722
      H1     6.11575  -13.06148  -15.33419
       H     8.46759  -16.30050  -19.38621
       O     8.89122  -15.84111  -18.62025
      H1     8.31798  -15.88794  -17.83335
       H    11.44077  -17.36343  -17.89993
       O    10.77035  -17.83661  -18.39037
      H1    10.14172  -17.13184  -18.64002
       H    19.24097  -18.04555  -19.13593
       O    18.51064  -18.67577  -19.10527
      H1    17.97634  -18.52439  -19.91134
       H    12.09790  -15.74293  -16.87260
       O    12.55888  -16.62305  -16.90869
      H1    13.17095  -16.51225  -16.18871
       H     6.19451  -18.72326  -18.79042
       O     6.18600  -17.85749  -18.32157
      H1     6.85019  -18.11244  -17.65182
       H    13.14584  -12.89742  -16.71334
       O    13.51561  -12.16967  -17.26217
      H1    14.07960  -12.60384  -17.95549
       H    15.23095  -14.56987  -18.89548
       O    15.01255  -13.63033  -19.09285
      H1    15.68680  -13.52014  -19.76725
       H    16.63271  -13.38406  -14.81645
       O    15.71308  -13.43638  -15.08463
      H1    15.49596  -12.55786  -15.38534
       H    13.59750  -18.74376  -11.70334
       O    14.52582  -18.66101  -11.48875
      H1    14.59773  -19.17671  -10.61898
       H     5.67356  -14.86626  -17.35248
       O     5.24023  -15.22825  -18.15268
      H1     5.78045  -15.93394  -18.38678

