90
frame 3 | Written by MDAnalysis XYZWriter (release 2.4.3)
       H   -16.85436   -7.60427   -2.59148
       O   -16.65324   -7.06265   -3.42276
      H1   -16.32105   -7.77093   -3.97963
       H   -16.77919   -6.56940    0.76367
       O   -16.29836   -6.11447    1.44228
      H1   -15.80694   -6.88328    1.84198
       H   -18.22006  -13.48649   -1.30304
       O   -17.50898  -13.39286   -0.61759
      H1   -18.11009  -13.50883    0.13699
       H   -17.47806  -13.20172    6.81755
       O   -18.30354  -12.96049    7.28051
      H1   -18.20215  -12.03461    7.29606
       H   -12.92038   -9.62451   -0.33275
       O   -13.27434  -10.34707    0.21772
      H1   -13.04038  -11.06628   -0.40523
       H   -19.31661   -7.35095    7.35579
       O   -18.38864   -7.45389    7.55638
      H1   -17.99212   -7.45654    6.67812
       H   -19.22169   -5.21482    1.51252
       O   -19.79667   -5.73556    1.00660
      H1   -19.76762   -6.51739    1.57269
       H   -17.39030   -9.33433    5.01079
       O   -17.56904   -8.42762    5.24876
      H1   -18.41728   -8.22846    4.81941
       H   -18.10924  -10.31106    8.28155
       O   -17.59358  -10.27951    7.40661
      H1   -17.94178   -9.39574    7.09137
       H   -15.58745   -8.60818    2.97550
       O   -15.07700   -8.66477    2.14000
      H1   -15.22828   -9.65749    2.06338
       H   -18.86890  -14.44382   -4.26780
       O   -18.38608  -13.93694   -3.57058
      H1   -18.79748  -13.09772   -3.61416
       H   -14.41809  -13.24422    0.16376
       O   -14.48040  -12.94845   -0.72557
      H1   -15.37988  -12.61050   -0.76257
       H   -16.67691   -5.95747    4.73103
       O   -15.83007   -5.44387    4.67651
      H1   -15.89629   -4.95921    5.50474
       H   -18.72585  -10.81517    0.82556
       O   -17.93840  -10.68796    0.25460
      H1   -17.84463  -11.58679   -0.05107
       H   -14.78833  -10.93952    0.96366
       O   -15.53062  -11.10876    1.58610
      H1   -16.29470  -11.05913    0.93165
       H   -18.27043   -5.25525    3.84705
       O   -18.10878   -5.98645    3.27244
      H1   -17.21687   -5.89947    2.84263
       H   -14.75215  -14.69461   -3.21151
       O   -14.25083  -14.99349   -2.45594
      H1   -14.27619  -14.19362   -1.88501
       H   -15.36964  -15.82955   -1.44620
       O   -16.13836  -16.43671   -1.24364
      H1   -16.76250  -15.79643   -0.88377
       H   -15.23683  -13.46370    6.22644
       O   -15.99537  -13.73102    5.71806
      H1   -15.99987  -12.96206    5.14653
       H   -18.81384   -8.00351   -1.09800
       O   -17.95225   -7.86579   -0.65907
      H1   -17.86308   -8.78418   -0.34040
       H   -16.08557  -11.18177    3.40577
       O   -15.83988  -10.98522    4.37679
      H1   -14.89932  -11.06601    4.21365
       H   -18.80900   -5.13576   -2.13934
       O   -19.69462   -5.51156   -1.87125
      H1   -19.53166   -5.56947   -0.91621
       H   -18.22941  -13.52779    4.22287
       O   -18.36620  -12.53473    3.98077
      H1   -18.91404  -12.28344    4.70680
       H   -12.25197  -11.02297    3.14872
       O   -13.03214  -10.45897    3.28949
      H1   -13.09284   -9.84937    2.53006
       H   -20.25663  -15.75877    1.53727
       O   -19.33817  -15.68641    1.30245
      H1   -18.95423  -15.81204    2.13601
       H   -14.79456  -12.35625   -4.58392
       O   -14.69769  -11.43731   -4.33233
      H1   -13.88683  -11.43772   -3.80355
       H   -13.05208  -14.03625    1.97503
       O   -14.00214  -14.25561    1.84291
      H1   -14.50322  -13.95031    2.58322
       H   -17.48167  -16.22838    4.31237
       O   -18.02490  -15.41656    4.08822
      H1   -18.82208  -15.73257    4.52525
       H   -16.26648   -9.85391   -5.38849
       O   -15.96599   -8.97633   -5.27535
      H1   -16.39388   -8.60272   -6.10617
       H   -16.81445  -13.89016   -4.42988
       O   -16.00688  -14.29350   -4.77312
      H1   -15.88002  -14.18429   -5.71883

