90
frame 3 | Written by MDAnalysis XYZWriter (release 2.4.3)
       H   -18.27201   11.47028   -7.25623
       O   -17.78723   11.67042   -8.06334
      H1   -17.60862   12.61922   -7.89936
       H   -12.80760    8.84869  -14.40430
       O   -13.48328    9.47017  -14.35753
      H1   -14.35003    9.01983  -14.47171
       H   -18.05411   16.33814  -17.25808
       O   -17.10395   16.30053  -17.48393
      H1   -16.98543   16.71601  -18.37917
       H   -18.69627   15.49731  -10.07890
       O   -19.00183   15.65751   -9.19633
      H1   -18.72066   16.59650   -9.15110
       H   -15.95389   14.67885  -13.24607
       O   -15.70799   15.33063  -12.56478
      H1   -16.52234   15.25567  -11.98709
       H   -12.50992   10.80113  -12.21953
       O   -12.85095   10.49304  -11.36979
      H1   -13.11581   11.34122  -11.00778
       H   -16.78124   17.09225  -10.03361
       O   -15.98987   16.77971   -9.59208
      H1   -15.66582   16.09743  -10.15146
       H   -14.03143   15.89582  -12.00297
       O   -13.34125   16.52501  -11.85645
      H1   -13.53128   17.20619  -12.51452
       H   -15.39360   11.71361  -14.99455
       O   -16.19864   11.67296  -14.43940
      H1   -15.85607   12.01320  -13.57483
       H   -16.67349   13.43947  -16.81915
       O   -17.12329   13.05814  -17.61621
      H1   -17.62045   12.27469  -17.30783
       H   -18.24799   16.82222  -13.10635
       O   -17.48721   17.46997  -13.20831
      H1   -16.69134   16.92900  -13.14214
       H   -13.10975   14.41004  -18.73850
       O   -12.75287   15.18665  -18.28725
      H1   -13.34359   15.20602  -17.50285
       H   -15.10161   18.93416  -17.05410
       O   -16.03275   18.86946  -17.36507
      H1   -16.10376   17.87068  -17.21227
       H   -19.35409    6.73510  -10.45230
       O   -19.10848    7.63319  -10.47053
      H1   -19.81664    8.07687   -9.97392
       H   -16.38183   15.05857   -7.50917
       O   -17.11642   14.45675   -7.61696
      H1   -17.78928   14.93868   -8.10727
       H   -12.23581   11.94833  -14.19184
       O   -11.49863   12.10023  -13.59272
      H1   -11.57787   13.00707  -13.27285
       H   -15.90213    9.18090  -18.74002
       O   -15.38154    8.98565  -19.53248
      H1   -15.29951    7.95131  -19.44158
       H   -16.89113   19.25495  -15.71681
       O   -17.09473   19.57293  -14.80179
      H1   -17.17558   18.76047  -14.27939
       H   -13.26395   10.84221  -16.08236
       O   -13.51307   11.74614  -16.25470
      H1   -12.99778   11.88342  -17.10171
       H   -18.85831   18.60246  -10.99868
       O   -18.34287   18.13751  -10.30244
      H1   -18.30766   18.87155   -9.61184
       H   -19.58365   19.61808  -16.25512
       O   -19.79996   18.99351  -15.46766
      H1   -18.95052   19.19778  -14.95758
       H   -18.60011   14.54451  -12.53759
       O   -18.23288   14.69303  -11.64246
      H1   -17.89587   13.82657  -11.43443
       H   -17.85008    9.68820  -10.68281
       O   -17.18460   10.27129  -10.30985
      H1   -17.64554   10.56483   -9.50905
       H   -17.95709    8.83043  -17.98254
       O   -17.36926    8.17137  -17.60558
      H1   -17.31944    8.42136  -16.63357
       H   -16.51175   11.53097  -11.15620
       O   -16.25661   12.37002  -11.58188
      H1   -15.40753   12.47366  -11.13950
       H   -19.26109   12.77543  -13.66720
       O   -18.54221   13.00271  -14.25153
      H1   -17.95546   12.23733  -14.04741
       H   -16.45984   10.01010  -14.51444
       O   -16.19137    9.06539  -14.70121
      H1   -16.82589    8.48857  -14.25840
       H   -15.70996    9.27915  -10.62508
       O   -14.98358    8.66647  -10.46820
      H1   -14.27342    8.97252  -11.11216
       H   -16.91972   14.21059  -14.98563
       O   -16.22014   14.52090  -15.55876
      H1   -16.63307   15.00684  -16.26539
       H   -19.49486   10.82625  -17.76962
       O   -19.10224   10.09423  -18.36202
      H1   -19.07155   10.47950  -19.24753

