90
frame 2 | Written by MDAnalysis XYZWriter (release 2.4.3)
       H     3.10238   11.98123   18.95959
       O     2.29679   12.42924   19.38764
      H1     2.44683   13.39133   19.28226
       H    -4.93435    5.13213   16.56645
       O    -4.89862    5.32223   17.51751
      H1    -4.07646    4.88912   17.85362
       H    -1.85572    5.11153   18.67916
       O    -1.89127    5.10425   17.72808
      H1    -1.33025    4.35912   17.47908
       H     0.79915   15.02296   16.77902
       O     1.64280   14.87403   17.23335
      H1     1.40198   14.93113   18.18541
       H    -3.79762   11.16924   12.58933
       O    -2.98790   11.59878   12.71505
      H1    -2.54352   11.62421   11.85357
       H    -3.34156    8.01381   18.22009
       O    -3.03838    7.97860   19.12471
      H1    -3.08819    7.02679   19.39627
       H    -1.27815   14.74892   15.83548
       O    -0.64253   15.32474   15.38111
      H1    -0.72604   14.99952   14.48886
       H    -4.03720   11.79515   18.48788
       O    -3.24878   11.30218   18.71551
      H1    -3.18491   10.68829   17.94926
       H    -6.14649   10.90055   14.85861
       O    -5.95679   10.15342   15.44632
      H1    -6.32378    9.47294   14.88330
       H    -6.67288    7.34157   13.64252
       O    -6.95156    7.94626   14.33236
      H1    -7.22904    7.23994   14.99904
       H    -8.05833   10.34875   18.01929
       O    -8.15802   10.08489   17.11803
      H1    -7.29633   10.38861   16.71346
       H     0.26549    7.12449   15.79511
       O     0.04724    7.23437   14.88729
      H1    -0.93456    6.97760   14.84987
       H    -6.02903   16.85864   18.21530
       O    -6.25572   16.40908   17.36565
      H1    -5.88796   17.06383   16.80053
       H    -6.44219   13.90350   13.19093
       O    -7.21559   13.59638   13.74855
      H1    -7.84791   13.29828   13.08941
       H     1.01362    9.70567   15.55510
       O     0.34727    9.89353   14.90348
      H1     0.06218    8.98443   14.70208
       H    -2.53540   13.90223   17.84379
       O    -1.72019   13.82380   17.35148
      H1    -1.74937   12.85179   17.42985
       H    -0.12448    5.79232   17.72414
       O     0.59547    6.42696   17.67648
      H1     1.19312    6.00898   18.30438
       H     2.04566    8.17536   17.50280
       O     2.18105    8.85102   16.76063
      H1     3.00804    8.53036   16.37407
       H    -3.89992   15.30688   14.98357
       O    -3.49674   15.91164   14.38981
      H1    -3.39457   16.71616   14.93516
       H    -4.98536   13.78354   16.19107
       O    -4.88437   13.41371   15.26024
      H1    -5.76887   13.38047   14.91903
       H    -5.17384   15.17496   17.76232
       O    -4.43339   14.51776   17.83478
      H1    -4.84341   14.08836   18.62496
       H     0.28459   10.41624   17.82216
       O     0.08462    9.87304   18.61171
      H1    -0.08358    9.07796   18.17243
       H    -2.17876    6.13462   16.17716
       O    -2.40772    6.45945   15.26032
      H1    -2.76381    7.33999   15.45094
       H     2.57113   11.46276   15.99662
       O     3.32736   11.93543   15.67349
      H1     3.29770   12.78250   16.12630
       H     1.27759   12.18514   18.08297
       O     0.99131   11.99603   17.15989
      H1     0.71845   12.91801   16.92347
       H    -2.38648   11.24771   14.59701
       O    -2.14322   11.09750   15.51033
      H1    -1.16958   10.73914   15.41616
       H    -3.37276    9.36141   16.04377
       O    -3.78162    8.70626   16.61831
      H1    -4.71829    8.69371   16.44244
       H    -0.76097   17.78000   18.96000
       O    -1.62791   17.40092   18.66825
      H1    -1.26677   16.69429   18.10230
       H    -8.00798    6.06450   17.02439
       O    -8.35971    6.66308   16.31458
      H1    -8.14008    7.59055   16.61261
       H    -3.00202   17.38268   17.13933
       O    -3.42374   17.76937   16.34136
      H1    -3.02025   18.68361   16.32448

