90
frame 3 | Written by MDAnalysis XYZWriter (release 2.4.3)
       H    -1.75248  -14.91874    2.09620
       O    -2.11355  -14.04275    1.84054
      H1    -2.54863  -13.79968    2.68879
       H    -3.64814  -11.54565    7.48475
       O    -3.52601  -11.06311    6.59872
      H1    -2.84187  -10.37999    6.79356
       H    -1.40730  -15.46491    8.22223
       O    -1.01586  -15.80475    7.41158
      H1    -0.19487  -15.27379    7.51393
       H    -7.56369  -12.72139    2.16855
       O    -7.81557  -13.39547    1.49072
      H1    -7.24312  -14.17309    1.71260
       H    -4.84893  -16.05308    9.47252
       O    -5.68460  -16.12145    9.92370
      H1    -6.26526  -16.16193    9.11944
       H    -7.47208  -10.46828    3.00527
       O    -6.96827  -11.26767    3.26445
      H1    -6.78937  -11.06071    4.15717
       H    -9.76932  -15.08634    3.21740
       O    -9.00887  -14.65419    3.65667
      H1    -8.60764  -14.25631    2.86806
       H    -6.83201  -13.34021   10.81673
       O    -6.87472  -14.15660   11.37638
      H1    -6.36878  -14.81685   10.79471
       H    -2.84721  -17.35802   10.71324
       O    -2.85702  -16.90213    9.84884
      H1    -2.68928  -17.58981    9.19934
       H    -5.50985  -15.39214    1.95387
       O    -6.18395  -15.16817    2.63308
      H1    -5.78040  -15.49097    3.48184
       H    -2.63867  -18.26669    7.15968
       O    -2.78156  -18.66211    8.02927
      H1    -3.71881  -18.83528    8.04272
       H    -2.74693  -18.54827    1.32393
       O    -3.25718  -18.32295    2.15708
      H1    -2.52771  -18.31605    2.78328
       H    -3.56571  -13.34683    9.07532
       O    -4.31365  -12.80518    8.76494
      H1    -4.79014  -13.34646    8.12502
       H   -12.05975  -16.45105    3.85830
       O   -11.09094  -16.26193    3.82255
      H1   -10.71357  -16.75598    4.54883
       H    -5.36291  -18.66433    6.38090
       O    -5.32801  -18.77109    7.30671
      H1    -6.29141  -18.86404    7.53526
       H    -7.25143  -13.47364    7.66740
       O    -6.62273  -14.17733    7.38824
      H1    -7.24350  -14.92125    7.27279
       H    -0.85427  -14.38535    4.51155
       O    -0.38225  -13.68291    4.93047
      H1    -0.01417  -13.27001    4.10353
       H    -5.35710  -16.25139    5.80197
       O    -5.36286  -16.59031    4.93953
      H1    -6.24840  -16.94351    4.84445
       H    -7.82535  -17.93963    8.44070
       O    -7.76379  -18.93175    8.33741
      H1    -7.19248  -19.14163    9.10699
       H    -9.56254  -17.70532    3.03139
       O    -8.68608  -17.42211    2.80713
      H1    -8.66990  -16.50171    3.08612
       H    -9.07610  -16.18613    8.26751
       O    -8.28589  -16.37586    7.68303
      H1    -8.76504  -16.82261    6.96722
       H    -8.50708  -12.64049    5.87102
       O    -9.30373  -12.87067    5.38872
      H1    -9.11814  -13.77010    5.04523
       H    -2.62174  -15.02801    6.37197
       O    -3.58023  -14.76499    6.60143
      H1    -3.66314  -13.91942    6.12821
       H    -3.47198  -16.85268    0.89287
       O    -3.68327  -16.00213    0.39022
      H1    -3.09477  -15.37166    0.81963
       H    -2.70471  -18.86526    5.46609
       O    -2.71101  -17.88481    5.45725
      H1    -3.67127  -17.63190    5.20116
       H    -3.47482  -12.01627    4.71801
       O    -3.56942  -12.85965    4.21473
      H1    -4.09872  -12.57348    3.47544
       H    -5.67355  -19.19953   10.82377
       O    -5.90866  -18.42342   11.40727
      H1    -5.72770  -17.69245   10.84824
       H    -9.21869  -18.91292    5.14381
       O    -9.66832  -18.21860    5.60447
      H1   -10.41605  -18.60176    6.15063
       H    -1.62046  -16.55376    4.21980
       O    -1.87032  -15.62425    3.94992
      H1    -2.68770  -15.53151    4.47874
       H    -5.01576  -18.46005    3.58140
       O    -5.74639  -19.03806    3.89293
      H1    -6.44136  -18.86337    3.21314

