90
frame 2 | Written by MDAnalysis XYZWriter (release 2.4.3)
       H   -17.99816   11.97494   -7.85929
       O   -17.74666   12.09617   -8.81375
      H1   -17.68413   13.09638   -8.77988
       H   -17.39716   15.58193   -2.48110
       O   -17.53362   15.13066   -3.31569
      H1   -16.99882   14.34494   -3.16462
       H   -12.41175   18.49508   -3.27644
       O   -12.20570   17.54081   -3.31294
      H1   -12.20112   17.32794   -2.37866
       H   -12.40633   10.31250  -11.90662
       O   -12.55765   10.26252  -10.96101
      H1   -12.52234   11.20219  -10.66804
       H   -15.31779   16.97791   -9.61324
       O   -14.45239   17.36241   -9.72717
      H1   -14.24390   17.20189  -10.68502
       H   -15.11649   10.86448   -9.22668
       O   -14.92159   11.60691   -8.65883
      H1   -15.75720   12.16270   -8.77531
       H   -16.54159   16.85417   -6.06408
       O   -16.13296   16.09435   -5.67213
      H1   -16.93225   15.78259   -5.15718
       H   -12.06786   13.39845   -3.21590
       O   -11.17084   13.50265   -2.84209
      H1   -11.07129   12.60626   -2.43796
       H    -9.62456   11.74450   -1.50058
       O   -10.45636   11.23206   -1.43263
      H1   -10.54793   10.72977   -2.22340
       H   -11.73509    9.56371   -6.21092
       O   -11.48227    8.91242   -5.54537
      H1   -10.78862    9.45534   -5.16645
       H   -10.97360   16.90352   -6.31421
       O   -10.13688   17.28302   -5.97703
      H1   -10.15039   16.90752   -5.10013
       H   -10.13531   13.89025  -10.33543
       O   -10.43877   13.01942   -9.98658
      H1   -10.11159   13.14067   -9.03512
       H   -12.53801   15.80429   -7.84104
       O   -12.23394   16.65733   -7.55331
      H1   -12.96097   16.88291   -6.89904
       H    -8.51348   11.31579   -3.81818
       O    -8.35542   11.98915   -3.16045
      H1    -7.42990   11.83201   -3.00729
       H   -15.41793   16.34334   -3.47754
       O   -14.58248   16.02948   -3.07663
      H1   -13.98594   16.68720   -3.42888
       H   -16.34750   14.98145   -8.15233
       O   -16.66730   14.60219   -8.99301
      H1   -17.52439   15.07644   -9.04990
       H    -8.94722   14.79429   -4.88214
       O    -8.18120   14.25202   -5.19907
      H1    -8.11031   13.43662   -4.62679
       H   -10.52163   15.01301   -3.63135
       O   -10.07543   15.87517   -3.70033
      H1   -10.89729   16.39279   -3.53917
       H   -11.76443   17.21678   -8.98633
       O   -11.57431   17.63675   -9.89254
      H1   -12.29342   17.16512  -10.34801
       H    -9.12981   14.05539   -6.98451
       O    -9.88745   14.46607   -7.45108
      H1    -9.94855   15.30270   -6.94252
       H   -10.27884    9.83411   -8.18337
       O    -9.57197    9.22609   -8.42147
      H1    -8.98422    9.79102   -8.93009
       H   -11.12966   14.04304   -1.04877
       O   -10.94359   14.39120   -0.17903
      H1   -11.23274   15.30887   -0.29152
       H   -13.67351   12.91660   -9.61273
       O   -13.22499   12.96805  -10.47541
      H1   -12.28506   13.14793  -10.28679
       H   -14.74138   11.82092   -6.84604
       O   -14.71148   11.45925   -5.96307
      H1   -15.21814   10.68956   -5.95295
       H   -12.85699   13.50554   -6.28226
       O   -12.58424   13.51083   -7.23660
      H1   -11.65923   13.93526   -7.15014
       H   -13.37675    8.90683   -4.66232
       O   -14.20528    8.36417   -4.46631
      H1   -14.75679    8.44839   -5.23456
       H   -12.58448   11.36436   -7.53189
       O   -12.15082   10.46449   -7.57510
      H1   -12.84164    9.96648   -8.07860
       H   -14.28896   19.28169   -6.95142
       O   -13.99166   18.63331   -6.29284
      H1   -14.87109   18.30055   -6.01992
       H   -16.91037   12.08150   -3.62739
       O   -16.14513   12.63923   -3.67439
      H1   -15.71255   12.16146   -4.38511
       H   -13.87283   14.72284   -4.17869
       O   -13.48272   13.88983   -4.58827
      H1   -14.26294   13.34211   -4.63182

