90
frame 2 | Written by MDAnalysis XYZWriter (release 2.4.3)
       H     6.81750   10.78906   -8.84875
       O     6.81346   11.66918   -9.26734
      H1     6.23582   12.14908   -8.62388
       H    -1.09646   14.30506   -2.09480
       O    -1.71663   14.04325   -1.40053
      H1    -1.60855   14.81134   -0.81613
       H    -0.56547   12.69127   -1.03627
       O    -0.02206   11.96707   -0.77267
      H1     0.43456   11.77457   -1.58144
       H     7.04573   14.55910   -1.72232
       O     7.32159   13.59921   -1.67400
      H1     6.85938   13.20282   -2.37523
       H     3.40538   15.02439   -2.18301
       O     4.13468   15.65391   -2.29041
      H1     3.67020   16.52108   -2.35011
       H     3.73436   12.29140   -1.87256
       O     3.11942   12.74816   -2.52336
      H1     2.52877   12.02487   -2.78211
       H     4.83021   11.26148    0.28393
       O     4.88243   11.59102   -0.58835
      H1     5.77780   12.01240   -0.58441
       H    -2.22436   17.28348   -6.91300
       O    -1.50553   17.34126   -6.27878
      H1    -1.16837   18.22710   -6.56205
       H     1.27103   15.21485   -6.53125
       O     0.58619   15.47588   -7.21079
      H1     0.13194   16.03652   -6.57578
       H     1.99076   13.60415   -1.35991
       O     1.35550   14.29137   -1.17212
      H1     0.80595   13.98917   -0.42512
       H     0.60120   14.35724   -2.86600
       O     0.00877   14.51227   -3.61969
      H1    -0.46361   13.68543   -3.78330
       H    -0.34216   12.74344   -8.79494
       O    -0.59212   13.03112   -7.87023
      H1    -0.31660   13.94797   -7.77487
       H     3.21722   14.53252   -5.16395
       O     2.32683   14.33035   -5.44168
      H1     1.73768   14.27320   -4.71208
       H    -1.90272   13.04999   -5.34166
       O    -1.60545   12.50310   -4.63850
      H1    -2.23146   12.60307   -3.94473
       H     4.89618   10.81235   -6.32240
       O     5.72319   10.71522   -5.79595
      H1     5.74771    9.74262   -5.66549
       H     4.60813   17.12061   -7.96683
       O     3.92759   17.79553   -7.66117
      H1     3.19131   17.67146   -8.28629
       H     4.70620   12.56759   -3.43344
       O     5.51754   12.79279   -3.94901
      H1     5.67437   11.97143   -4.38569
       H     5.74129   16.27060   -2.10773
       O     6.66941   16.59144   -2.06846
      H1     6.85338   16.92410   -2.99560
       H    -1.03642   18.34565   -3.53235
       O    -0.87592   17.37002   -3.33672
      H1    -1.32265   17.03718   -4.12861
       H     5.31949   15.08648   -8.26748
       O     5.74314   15.90943   -7.92533
      H1     5.56909   15.88952   -6.96538
       H     7.94421   14.04345   -5.98965
       O     8.01708   13.88614   -5.05092
      H1     7.11144   13.41921   -4.79441
       H     1.06766   17.49895   -3.20368
       O     1.91260   17.39915   -2.73719
      H1     2.34479   18.21318   -3.11016
       H     2.64903   13.06955  -10.77859
       O     3.53462   12.84922  -10.45143
      H1     4.06113   13.33229  -11.13902
       H     4.22791   12.82869   -7.38387
       O     4.97180   12.92217   -8.04468
      H1     4.46039   12.99882   -8.92479
       H     5.24488   16.03007   -4.72717
       O     4.72809   15.74928   -5.51003
      H1     4.38512   16.58549   -5.87598
       H     0.60730   10.84868   -4.27294
       O     1.11169   10.86838   -3.48016
      H1     1.07529    9.91276   -3.24908
       H     2.43150   11.86384   -5.94996
       O     2.92998   11.48331   -6.67604
      H1     3.07570   10.61367   -6.38449
       H     7.49728   17.88548   -5.45047
       O     6.84538   17.70505   -4.70680
      H1     6.25988   18.41832   -4.77002
       H     1.05067   17.46109   -8.34251
       O     1.28866   18.24899   -8.87584
      H1     1.34878   17.82249   -9.78896
       H     0.12931   11.17927   -6.72202
       O    -0.04862   10.49326   -6.04716
      H1    -0.84972   10.89200   -5.64570

