90
frame 3 | Written by MDAnalysis XYZWriter (release 2.4.3)
       H   -17.17686   19.02158   13.33072
       O   -17.88459   18.35538   13.41598
      H1   -17.56554   17.68215   13.99838
       H   -18.58682    6.40003   10.11011
       O   -18.47449    6.41358   11.05206
      H1   -18.69972    7.29195   11.29147
       H   -15.66401    7.91822   10.51099
       O   -16.17707    7.79886   11.30079
      H1   -16.63520    6.95330   11.10684
       H   -16.71856   14.87080   18.90860
       O   -16.89400   15.74663   18.53151
      H1   -17.84512   15.72689   18.32413
       H   -14.02226   16.07905   16.96702
       O   -13.57231   15.46855   16.34468
      H1   -13.23642   14.74083   16.87337
       H   -13.78192    9.91713   13.75738
       O   -13.43887   10.76617   13.47491
      H1   -12.46643   10.67407   13.45671
       H   -16.62462   15.50962   14.64310
       O   -17.21768   16.25636   14.92473
      H1   -16.77038   16.41310   15.76388
       H   -14.81306   16.86991   13.57040
       O   -14.39751   17.47680   12.97408
      H1   -13.66781   17.72717   13.52828
       H   -15.55056    8.83611   14.18894
       O   -14.90787    8.39059   13.69291
      H1   -15.38824    8.15449   12.87315
       H   -14.72074   18.65683   16.80320
       O   -14.79479   17.66306   16.92634
      H1   -15.29861   17.68819   17.79073
       H   -18.45391    6.26029   18.05343
       O   -17.54649    6.50443   17.80216
      H1   -17.66906    7.47460   17.71560
       H   -16.44402   10.54719   15.22824
       O   -16.79932    9.63153   15.31883
      H1   -17.64310    9.88245   14.91190
       H   -12.96611    8.74246   18.32435
       O   -12.45918    7.99806   17.90029
      H1   -13.19170    7.35580   17.83828
       H   -16.22807   13.10300   18.44762
       O   -15.83732   13.54737   19.23364
      H1   -16.52259   13.31660   19.90061
       H   -18.67741   10.02367   11.21360
       O   -18.71408    9.21902   11.75865
      H1   -17.83438    8.83882   11.57401
       H   -17.76823    4.71533   14.82411
       O   -18.36199    5.10704   15.55100
      H1   -17.68043    5.45883   16.17209
       H   -12.84577   12.48091   18.49605
       O   -12.87439   13.44912   18.36663
      H1   -13.80220   13.63650   18.52117
       H   -19.05961    9.31473   13.40652
       O   -19.40721    9.63363   14.26768
      H1   -19.78247    8.83326   14.53758
       H   -19.76358    7.88194   16.57402
       O   -19.85973    8.33438   17.39364
      H1   -18.96311    8.81225   17.52656
       H   -16.01208    6.04455   13.49549
       O   -16.31397    5.14765   13.61572
      H1   -15.50582    4.76171   14.02648
       H   -16.39196   12.02683   13.49709
       O   -16.26596   12.23694   14.44741
      H1   -17.19331   12.47406   14.71232
       H   -17.66840   14.90334   10.84074
       O   -18.04889   13.98000   10.96203
      H1   -18.31086   13.79572   10.06465
       H   -17.16549   12.64665   11.35783
       O   -16.43798   11.99629   11.44576
      H1   -15.75149   12.62661   11.43138
       H   -19.53272   11.51623   14.69788
       O   -18.99270   12.28053   15.08942
      H1   -19.29930   12.89486   14.41263
       H   -18.55665   14.66321   12.59019
       O   -19.13829   14.73901   13.42893
      H1   -18.48180   15.23211   14.02077
       H   -17.54613   11.04558   17.82561
       O   -17.83034   11.98372   17.83715
      H1   -18.37138   12.02504   16.99084
       H   -14.47082   14.84537   14.95833
       O   -15.03626   14.70529   14.22612
      H1   -15.43384   13.82234   14.44027
       H   -14.08521   10.18001   11.48366
       O   -14.21549   10.43651   10.53666
      H1   -15.04924   10.94277   10.75206
       H   -13.33987   12.78000   11.93783
       O   -14.06508   13.39296   11.84115
      H1   -14.19577   13.74221   12.77255
       H   -17.02319    9.35169   17.02949
       O   -17.45606    9.16805   17.86780
      H1   -16.66604    8.91586   18.38927

