90
frame 3 | Written by MDAnalysis XYZWriter (release 2.4.3)
       H    -5.61150    7.56961   -1.99046
       O    -6.42535    7.62443   -1.42948
      H1    -5.91634    8.03119   -0.63751
       H    -3.60787   13.72475    5.26152
       O    -4.20910   13.03203    5.02407
      H1    -4.40222   12.67629    5.89977
       H   -11.31783   10.29200    2.20464
       O   -11.31994   11.24464    2.19328
      H1   -10.45375   11.47676    1.82768
       H    -7.92888   15.47104    0.71777
       O    -7.30641   15.71150    1.40941
      H1    -7.56752   16.63357    1.56599
       H    -3.44808    8.77212    3.10031
       O    -4.34965    8.88836    3.18978
      H1    -4.28364    9.85686    3.16812
       H    -3.05690   13.95802   -0.98053
       O    -3.91749   13.58134   -0.65983
      H1    -3.72167   12.90914    0.06394
       H    -7.83554   13.38664    2.29372
       O    -8.00935   12.52997    2.69942
      H1    -7.12006   12.18939    2.87434
       H    -5.64547    8.39238    1.79289
       O    -6.18535    8.70408    1.07331
      H1    -6.79526    7.96928    0.95875
       H   -11.15488    8.02089    2.50895
       O   -10.88414    8.51883    1.75658
      H1   -11.55309    8.19318    1.15008
       H    -9.08206   11.21455   -1.83448
       O    -9.73591   11.00632   -1.07735
      H1    -9.51539   10.05723   -1.04052
       H    -6.09510   14.95421   -2.47346
       O    -5.45499   14.43547   -2.95555
      H1    -5.08432   13.88470   -2.25291
       H    -6.27155   10.52817    1.13246
       O    -6.25236   11.47538    0.85073
      H1    -7.25301   11.58329    0.98716
       H    -8.08126    8.94970    4.22363
       O    -8.99247    9.10835    4.56375
      H1    -8.88085    9.99908    4.85661
       H    -6.63842    8.39137    5.53600
       O    -6.48311    7.82250    4.78492
      H1    -5.72916    8.26466    4.41238
       H    -8.74935    6.06652    1.37116
       O    -7.85232    6.32680    1.09558
      H1    -7.42672    5.50408    0.97825
       H    -8.59740   11.60653   -3.73866
       O    -8.31262   12.24103   -3.08136
      H1    -7.51646   11.99677   -2.61672
       H    -9.10165   12.20921    3.90724
       O    -9.89569   11.98647    4.45313
      H1   -10.53929   11.85968    3.71174
       H    -5.47152   11.76178    4.14828
       O    -6.41789   11.32455    4.39458
      H1    -6.84007   12.07297    4.80491
       H    -6.89960   14.84626    4.30609
       O    -6.15001   15.44951    3.98533
      H1    -6.44822   15.41592    3.04813
       H    -5.72030   11.34557   -1.08676
       O    -5.65452   11.23245   -2.03135
      H1    -4.65979   10.98863   -2.08578
       H    -8.50604   12.40027    5.69065
       O    -7.77254   12.86837    6.12281
      H1    -8.13148   13.75966    6.16212
       H    -9.33480   15.23514    4.60530
       O    -9.21865   15.36128    3.64858
      H1   -10.05447   14.95870    3.29189
       H   -11.53364   14.39480   -0.80678
       O   -11.10893   14.44384    0.05938
      H1   -11.15377   15.36713    0.23847
       H    -8.50871    8.14346   -0.57864
       O    -9.45339    8.38750   -0.54550
      H1    -9.69084    8.33990    0.38856
       H    -5.46757   11.86293   -3.93561
       O    -5.21293   11.89137   -4.86272
      H1    -4.42327   12.44464   -4.80738
       H    -2.41933   12.35357    1.85699
       O    -2.05136   12.46223    0.95015
      H1    -1.61829   13.33222    0.95641
       H    -4.90913   16.55718    1.05919
       O    -4.11946   16.06346    0.90211
      H1    -4.36259   15.20758    0.60804
       H    -9.36658   14.02440   -0.45942
       O    -8.41200   13.87377   -0.67428
      H1    -8.56456   13.24140   -1.40781
       H    -3.58478   11.74439    4.05810
       O    -2.87628   11.32039    3.53980
      H1    -2.45138   10.68043    4.13272
       H   -13.01384   10.94051   -0.30642
       O   -12.51832   11.27244   -1.07915
      H1   -11.55671   11.21058   -0.81557

