90
frame 3 | Written by MDAnalysis XYZWriter (release 2.4.3)
       H   -11.71408    9.13911  -10.54319
       O   -11.04693    8.44079  -10.46579
      H1   -10.49031    8.71482   -9.72656
       H   -12.22653    4.38980  -11.10252
       O   -12.46008    3.64252  -11.66717
      H1   -13.33723    3.86987  -12.00470
       H   -10.25546    7.37487  -12.56000
       O    -9.93279    6.42703  -12.49082
      H1   -10.22507    6.14382  -13.35278
       H    -3.55492    3.62712  -12.99016
       O    -4.07680    3.97816  -13.68093
      H1    -4.84495    3.35330  -13.79908
       H    -3.20362    8.68066  -11.90001
       O    -2.50860    9.32917  -11.90096
      H1    -2.61025    9.81751  -11.02551
       H    -5.30601    1.61449  -14.96210
       O    -6.23080    1.82312  -14.78251
      H1    -6.64369    1.93224  -15.64707
       H    -6.12683    6.24494  -15.57895
       O    -6.13699    6.78915  -14.81903
      H1    -6.45812    6.13653  -14.17321
       H    -2.86921    7.69102  -15.07066
       O    -3.76589    8.16695  -14.86701
      H1    -4.35636    7.44429  -14.74301
       H   -11.14821    7.45734  -15.96006
       O   -10.82074    8.19146  -15.41449
      H1   -10.95468    8.92918  -16.03637
       H    -7.19497    9.15400  -11.31116
       O    -6.41582    8.74307  -10.96982
      H1    -6.75366    8.21721  -10.18308
       H    -9.03666    8.48129   -7.13670
       O    -8.44530    8.42788   -6.37752
      H1    -8.80628    7.64460   -5.88658
       H    -7.37072    7.68338   -7.81736
       O    -6.97405    7.51853   -8.70425
      H1    -6.49315    6.65498   -8.51064
       H    -8.82502    8.26445  -15.57502
       O    -7.98212    8.50834  -15.97947
      H1    -7.38861    7.96897  -15.41284
       H    -9.45589    0.28609  -10.79778
       O    -9.75022    1.06357  -11.27438
      H1   -10.10058    0.72027  -12.10717
       H    -7.62801    4.41062  -12.44226
       O    -7.29927    5.26103  -12.15418
      H1    -8.17248    5.76075  -12.16724
       H    -4.63400    6.33336  -12.39422
       O    -4.30595    7.04871  -11.77528
      H1    -5.17419    7.54444  -11.59840
       H   -12.35363    7.21609  -12.46903
       O   -12.93739    6.64279  -12.99130
      H1   -12.41767    6.63189  -13.82593
       H    -5.07260    5.23732   -7.59483
       O    -6.03373    5.22062   -7.83271
      H1    -5.99254    5.07038   -8.78244
       H    -8.35013    1.93154  -12.11532
       O    -7.92004    2.63590  -12.63350
      H1    -7.34894    2.19065  -13.29862
       H    -9.71438    2.93100   -8.56409
       O    -9.61203    3.23834   -9.48319
      H1   -10.01101    2.51101   -9.98946
       H    -3.42061    9.73652   -8.64508
       O    -4.03806    9.03200   -8.59579
      H1    -4.41831    8.96800   -9.51556
       H    -6.78502    5.93370  -17.63169
       O    -5.85287    5.97145  -17.49244
      H1    -5.69972    6.89989  -17.70592
       H   -10.78363    5.04018  -15.94426
       O   -10.55600    5.04447  -14.99706
      H1   -10.77658    4.13760  -14.71281
       H    -6.02579    4.93378  -10.98073
       O    -5.18186    4.77015  -10.48561
      H1    -4.58895    5.38298  -10.97161
       H   -10.53384    4.97424   -9.77520
       O   -11.29359    5.54706   -9.90088
      H1   -10.83640    6.26682  -10.38328
       H   -10.43128   10.23735   -8.62032
       O    -9.61744    9.66146   -8.54728
      H1    -9.05696   10.22118   -9.11648
       H    -6.47930    2.92489   -9.03614
       O    -7.18195    2.28129   -8.90292
      H1    -7.97136    2.75331   -9.20547
       H   -12.05914    2.18242  -14.69053
       O   -11.36480    2.53897  -14.15361
      H1   -11.84750    2.77100  -13.34125
       H    -5.29342    3.15275  -11.23497
       O    -5.27256    2.27475  -11.62022
      H1    -5.87690    1.82532  -11.05322
       H    -3.54677    4.71987  -15.38640
       O    -2.87121    5.03963  -16.00784
      H1    -2.02083    5.11296  -15.52717

