90
frame 3 | Written by MDAnalysis XYZWriter (release 2.4.3)
       H     8.12157   12.81388   -8.76420
       O     8.87887   13.21802   -8.36248
      H1     9.10839   13.92289   -9.00672
       H     9.01477   15.45987   -4.25681
       O     9.83932   15.86357   -4.58118
      H1    10.01094   16.39540   -3.82733
       H    15.93936   17.00119  -14.07394
       O    15.33279   16.69091  -13.35137
      H1    14.38723   16.99237  -13.65074
       H     7.99322   16.03856  -15.81169
       O     8.75358   16.37274  -15.21693
      H1     8.59257   17.27930  -14.93679
       H    13.99472   16.90929   -5.43981
       O    14.36987   17.49607   -4.77815
      H1    13.80487   17.28248   -3.97807
       H    16.44840   17.07117   -6.13594
       O    16.24501   17.64752   -6.90889
      H1    17.06727   17.64237   -7.45637
       H    12.06896   16.09200  -16.59175
       O    12.97233   16.01030  -16.26560
      H1    13.29209   15.11404  -16.42033
       H    11.26366   15.36419  -12.55572
       O    10.67278   14.85080  -11.97595
      H1     9.87100   15.26628  -12.24265
       H    10.89016   18.66643  -10.57197
       O    11.48802   18.03483  -10.14181
      H1    12.36206   18.15121  -10.62534
       H    10.49720   13.97253   -6.87072
       O    11.10548   14.20622   -6.12901
      H1    10.53411   14.88117   -5.63822
       H    11.76198   15.92087   -9.73290
       O    11.79404   15.47527   -8.88113
      H1    11.83135   16.24494   -8.35879
       H    12.71344   16.10325  -14.57728
       O    12.36552   16.25995  -13.67471
      H1    11.94357   17.12900  -13.80946
       H     9.23406   19.10630  -14.22182
       O     8.37582   19.11261  -14.69195
      H1     8.56470   19.45518  -15.58216
       H    14.60122   17.10231  -11.49975
       O    14.15769   17.46769  -10.76756
      H1    14.54881   16.94192  -10.10680
       H    14.98545   13.97102  -14.57752
       O    14.49605   13.70944  -13.84007
      H1    14.68323   14.46408  -13.31166
       H    12.96719   13.58230   -8.36909
       O    13.00204   12.63340   -8.38997
      H1    12.56310   12.39769   -9.20308
       H    10.08626   17.42822   -7.16841
       O    10.44370   17.84694   -6.34674
      H1    10.01237   17.14884   -5.68819
       H     5.57389   15.10194   -7.19939
       O     6.26825   15.82433   -7.00240
      H1     6.44096   15.49267   -6.07698
       H    11.38554   19.10405  -15.22794
       O    11.36125   18.92290  -14.26707
      H1    11.60029   19.75756  -13.83189
       H    11.39524   13.13820  -11.22036
       O    11.35803   12.22794  -10.98107
      H1    10.46611   12.03507  -11.25091
       H     7.67475   16.09604  -13.59429
       O     7.91961   16.24136  -12.64363
      H1     7.31023   15.69870  -12.13121
       H    11.42255   19.57189   -7.12166
       O    11.95657   19.79207   -7.87464
      H1    11.65327   19.14210   -8.56767
       H     5.96140   18.51094  -10.27311
       O     6.59631   18.96498   -9.78364
      H1     6.67426   19.81674  -10.25764
       H     6.12284   14.24852  -12.50298
       O     6.08277   14.42381  -11.55350
      H1     5.75628   15.30190  -11.62233
       H    14.70170   13.17852   -4.56697
       O    15.18581   13.98244   -4.71070
      H1    14.60886   14.44680   -5.36832
       H     9.09429   18.11083  -11.75177
       O     9.49792   18.96716  -11.86069
      H1     8.77205   19.52203  -12.15338
       H    12.65100   14.77700   -6.51194
       O    13.54459   15.21796   -6.46017
      H1    13.72846   15.30066   -7.41369
       H     7.83689   17.78953   -9.06738
       O     8.40008   17.29387   -8.40150
      H1     7.81360   16.57250   -8.16265
       H    15.96642   15.60745   -8.97341
       O    15.00410   15.81683   -8.78998
      H1    15.11005   16.50191   -8.08635
       H    13.06646   13.00532  -13.84426
       O    12.22279   12.53213  -13.78717
      H1    11.91640   12.51594  -12.88514

