90
frame 3 | Written by MDAnalysis XYZWriter (release 2.4.3)
       H   -11.93749  -16.20318   18.02428
       O   -11.88582  -16.39770   18.97312
      H1   -12.72834  -16.06661   19.26969
       H   -13.60613  -12.06357   15.20546
       O   -14.22261  -11.69086   14.55492
      H1   -14.50643  -12.55172   14.06356
       H   -13.42710  -13.28377   17.70281
       O   -13.09573  -13.61222   16.88418
      H1   -12.12332  -13.63373   17.04315
       H   -19.71176  -19.39473   15.47698
       O   -19.43875  -18.63074   14.87347
      H1   -19.04104  -19.22095   14.21176
       H   -16.71643  -13.98613   17.71427
       O   -16.24900  -13.38943   17.05928
      H1   -15.42243  -13.84334   16.91028
       H   -15.01083  -18.75938   15.22122
       O   -14.45362  -18.98368   15.97419
      H1   -13.72314  -19.43736   15.50974
       H   -15.04117  -20.02845   13.07003
       O   -15.36473  -19.14000   13.32227
      H1   -14.86822  -18.52824   12.78143
       H   -15.70932  -14.35505    8.97821
       O   -15.10995  -15.01392    8.56900
      H1   -15.35694  -15.83333    8.91266
       H   -19.49928  -11.03011   13.23111
       O   -19.63673  -11.98448   13.31437
      H1   -18.67581  -12.25143   13.35886
       H   -18.50295  -13.65395   16.07395
       O   -19.04251  -14.33748   15.77491
      H1   -18.46356  -15.05804   15.51318
       H   -16.60521  -10.63867    9.98377
       O   -16.04329  -10.40504   10.72522
      H1   -16.29783  -11.07476   11.40072
       H   -16.42106  -11.66037   18.22226
       O   -16.58663  -11.04916   18.95262
      H1   -17.07675  -11.65145   19.53685
       H   -15.64934  -18.86449    9.15517
       O   -15.78725  -17.90459    8.92963
      H1   -15.14838  -17.86204    8.24692
       H   -11.27612  -17.43646   10.65609
       O   -11.49959  -17.78253   11.55063
      H1   -11.69366  -16.99950   12.07337
       H   -15.53431   -9.31469   16.43047
       O   -15.17309  -10.16702   16.67415
      H1   -15.06156  -10.65885   15.88970
       H   -14.09964  -17.84910   11.03070
       O   -14.45470  -17.12922   11.58356
      H1   -15.29787  -16.93285   11.16495
       H   -17.70424  -13.82002   10.28594
       O   -17.05877  -13.35598    9.79027
      H1   -17.56005  -13.15648    8.95888
       H   -11.99982  -13.72844   13.74624
       O   -11.57144  -12.90098   13.90620
      H1   -12.06407  -12.27331   13.41022
       H   -13.30249  -15.29222   11.04295
       O   -13.44185  -14.47768   10.54215
      H1   -14.00293  -14.91826    9.89909
       H   -12.51984  -16.44740   13.94577
       O   -12.14848  -15.80082   13.36813
      H1   -11.23986  -15.74280   13.78793
       H   -17.14219  -16.57504   16.28601
       O   -17.63007  -16.59617   15.40134
      H1   -18.19927  -17.39938   15.44189
       H   -18.43329  -14.62859   17.94563
       O   -18.14240  -14.14118   18.74864
      H1   -18.86813  -13.42768   18.86694
       H   -15.26317  -15.99698   18.09661
       O   -15.64647  -16.69263   17.53140
      H1   -14.96935  -16.91577   16.88235
       H   -16.92552  -12.07445   15.85252
       O   -17.47215  -11.27712   15.65183
      H1   -16.81789  -10.58023   15.92021
       H   -10.38088  -15.93040   15.69057
       O   -11.16611  -16.46517   15.91132
      H1   -10.97167  -17.39539   15.72519
       H   -15.11318  -14.96589   12.90233
       O   -14.66508  -14.06057   13.05177
      H1   -14.16690  -13.95698   12.20593
       H   -17.21777  -16.25181   13.47413
       O   -16.83474  -15.65528   12.78444
      H1   -17.56180  -15.74014   12.12134
       H   -16.55789  -13.40203   12.96329
       O   -16.98159  -12.53241   12.95125
      H1   -16.76178  -12.07546   13.76644
       H   -13.58804  -12.07084   19.63037
       O   -14.37804  -12.48714   19.28420
      H1   -15.00530  -11.77879   19.15287
       H   -15.86791  -19.18410   19.88823
       O   -16.46899  -19.11078   19.16543
      H1   -15.94580  -18.51578   18.60647

