90
frame 6 | Written by MDAnalysis XYZWriter (release 2.4.3)
       H    -9.88666  -16.62888   -8.58101
       O    -9.38710  -16.78198   -9.40998
      H1    -8.96055  -17.64540   -9.39810
       H    -7.80556  -16.61707  -12.85818
       O    -7.90559  -17.34568  -12.21647
      H1    -7.21499  -17.97678  -12.39902
       H    -6.48757  -12.61378  -14.58027
       O    -5.87013  -13.36006  -14.71752
      H1    -5.21873  -13.17327  -15.38730
       H    -7.29052  -11.47326  -10.36262
       O    -7.17206  -10.95983  -11.17512
      H1    -6.21839  -10.80736  -11.31349
       H   -10.88871  -15.88552  -12.47024
       O   -10.87265  -15.45779  -11.60764
      H1   -10.16279  -15.92446  -11.17948
       H   -10.58234  -10.79474  -13.97459
       O   -11.10422  -11.25856  -14.58063
      H1   -10.55550  -11.96652  -14.97273
       H    -8.34170  -12.32401  -12.48688
       O    -8.40074  -13.19400  -12.77940
      H1    -7.90914  -13.67885  -12.10410
       H   -14.15566  -10.65707  -13.09752
       O   -13.63617   -9.83664  -13.03966
      H1   -14.19787   -9.09781  -13.33915
       H    -6.93200  -15.82183  -11.60642
       O    -6.87275  -14.83269  -11.34041
      H1    -6.03640  -14.41320  -11.57058
       H   -10.36897  -12.56819  -10.60906
       O   -10.08130  -12.14165   -9.79736
      H1   -10.28739  -12.77445   -9.13263
       H   -10.61846  -14.76529   -7.76549
       O   -10.59458  -13.77671   -7.63289
      H1    -9.92367  -13.67127   -6.96188
       H    -9.18694  -13.19446  -15.06095
       O    -9.65199  -12.98916  -15.88601
      H1    -8.91542  -12.61825  -16.44547
       H    -5.62466  -16.32013   -7.50755
       O    -6.44339  -16.72245   -7.89831
      H1    -6.86680  -15.93649   -8.31165
       H   -14.10315  -12.95831  -14.81776
       O   -14.06390  -13.60443  -14.06238
      H1   -13.19043  -13.49111  -13.65235
       H   -13.69559   -9.42060   -9.41189
       O   -14.22429   -8.63883   -9.44470
      H1   -13.63243   -7.92179   -9.19432
       H   -11.31934   -8.20870  -10.21102
       O   -11.30220   -8.30533  -11.14789
      H1   -11.88863   -7.55617  -11.46705
       H    -8.62925  -10.04441  -12.29412
       O    -9.39740   -9.75903  -12.79253
      H1   -10.05666   -9.33710  -12.23590
       H    -7.40395   -9.16190  -10.20376
       O    -7.61808   -8.37808   -9.67843
      H1    -6.77719   -7.97621   -9.48939
       H   -10.15683  -10.32638   -6.63621
       O   -10.20489  -10.15569   -5.69907
      H1   -10.91169  -10.69330   -5.35571
       H   -11.12822  -12.60771  -12.93176
       O   -11.53353  -12.97100  -12.16051
      H1   -11.34262  -13.91238  -12.05793
       H   -12.21871   -8.25756  -13.39975
       O   -12.33104   -7.29636  -13.48956
      H1   -12.03576   -7.18044  -14.43835
       H    -7.35373  -14.45926   -9.56949
       O    -8.11168  -14.57398   -8.89866
      H1    -8.58240  -15.26537   -9.39998
       H   -13.81342  -13.47383   -6.54065
       O   -13.29292  -14.23137   -6.19003
      H1   -12.32894  -14.00386   -6.42991
       H   -11.45859  -17.52309   -7.71493
       O   -11.06547  -16.64305   -7.41319
      H1   -10.83934  -16.77718   -6.46560
       H   -11.50609  -10.97065   -9.44407
       O   -12.04510  -10.39477   -8.84838
      H1   -12.56153  -11.03311   -8.32376
       H   -14.36121  -12.61677   -8.45601
       O   -14.38839  -12.07390   -7.61052
      H1   -15.34358  -12.06847   -7.54421
       H    -8.62185   -9.46528   -8.69089
       O    -8.96157  -10.24982   -8.23655
      H1    -9.52094  -10.76245   -8.87380
       H    -7.33509  -12.87232   -8.50025
       O    -6.96821  -11.98309   -8.58885
      H1    -7.78412  -11.39007   -8.29184
       H   -13.48125  -13.07873  -10.75984
       O   -13.80932  -13.35810   -9.95272
      H1   -13.45071  -14.17414   -9.54372
       H   -15.14064  -15.76155   -8.46180
       O   -14.22814  -15.75040   -8.57327
      H1   -13.81418  -15.48717   -7.70069

