90
frame 3 | Written by MDAnalysis XYZWriter (release 2.4.3)
       H   -14.88999   14.59084    5.87318
       O   -13.88322   14.59990    5.83955
      H1   -13.62197   14.99311    4.95232
       H   -15.85615   14.51892    3.10620
       O   -16.85984   14.45550    3.13217
      H1   -17.26716   15.34184    2.94182
       H   -14.30249   16.55976    9.71136
       O   -14.82398   17.35273    9.49884
      H1   -14.54138   17.58908    8.58616
       H    -5.89816   17.31449    6.15905
       O    -5.24853   16.76129    6.59657
      H1    -4.75310   16.36755    5.79567
       H   -14.81306   16.86991   13.57040
       O   -14.39751   17.47680   12.97408
      H1   -13.66781   17.72717   13.52828
       H   -11.23711   15.80202    9.39522
       O   -10.32913   15.53513    9.27026
      H1   -10.44132   14.55136    9.28262
       H   -11.05351   12.62643    9.67450
       O   -10.49622   12.94529    8.94263
      H1   -11.03025   12.92482    8.13871
       H   -13.29567   18.81113    3.51678
       O   -12.78064   18.28509    2.92474
      H1   -12.01600   18.84762    2.77413
       H   -15.47420   20.01527    4.61470
       O   -14.69650   19.45186    4.37860
      H1   -14.88299   18.74745    5.01053
       H   -17.40718   17.28802   11.25660
       O   -17.36431   16.53761   10.66800
      H1   -16.57892   16.76708   10.17552
       H    -9.71433   14.21305   11.99413
       O   -10.36178   14.79102   12.37771
      H1   -10.74686   15.27240   11.59822
       H    -9.44008   15.44518    7.51464
       O    -8.70070   15.71189    6.88945
      H1    -7.98456   15.44841    7.49162
       H   -13.68426   18.10945    1.42932
       O   -14.19399   17.97342    0.57325
      H1   -14.41104   18.87498    0.30602
       H   -16.86451   18.40828    5.48733
       O   -16.62574   18.39689    6.47146
      H1   -17.43916   18.25034    6.94271
       H   -19.10626   16.70853    8.99315
       O   -18.95684   17.46361    8.37369
      H1   -18.61759   18.07816    9.07556
       H    -8.21738   17.25752   11.66781
       O    -7.99706   16.86116   10.80810
      H1    -8.86573   16.55376   10.54958
       H    -8.08749   17.31600    6.56105
       O    -7.72137   18.12979    6.22213
      H1    -7.84018   18.72565    6.96712
       H   -13.10833   15.06924    2.60545
       O   -12.75451   15.51022    3.42003
      H1   -12.74459   16.44376    3.11497
       H   -13.22256   14.85846   11.49809
       O   -12.75595   15.75805   11.34615
      H1   -13.26347   16.37304   11.87964
       H   -14.98917   17.27935    6.76822
       O   -14.05416   17.32003    6.81907
      H1   -13.73023   16.38222    6.70944
       H    -9.33480   15.23514    4.60530
       O    -9.21865   15.36128    3.64858
      H1   -10.05447   14.95870    3.29189
       H   -19.26934   18.33563   11.07453
       O   -18.80867   19.05026   10.61843
      H1   -19.45572   19.63584   10.18372
       H    -9.88558   19.31467    1.10643
       O   -10.48303   19.59572    1.86084
      H1    -9.90267   19.32894    2.57730
       H   -13.61287   18.75329    9.93837
       O   -13.49388   19.68013   10.36598
      H1   -12.60318   19.94364   10.11172
       H   -18.10433   17.26848    4.06569
       O   -17.38312   17.83677    3.80873
      H1   -17.85127   18.63903    3.54346
       H    -8.25116   18.26952    4.49960
       O    -8.75580   18.18445    3.67726
      H1    -9.08192   17.33933    3.85158
       H   -17.68963   17.76738    0.83247
       O   -17.26248   18.57229    0.66777
      H1   -16.36592   18.25777    0.85177
       H   -12.23814   18.42662    6.56976
       O   -11.88042   19.29356    6.68439
      H1   -12.63958   19.85052    6.98174
       H   -12.58400   17.57302    0.05685
       O   -11.66992   17.20677   -0.26225
      H1   -10.97017   17.78248   -0.06646
       H   -12.24158   13.60464    5.92182
       O   -11.65162   13.03860    6.37667
      H1   -11.09232   12.72352    5.61367

