90
frame 3 | Written by MDAnalysis XYZWriter (release 2.4.3)
       H    -5.78126  -10.28827   18.93936
       O    -6.49774  -10.62519   18.33836
      H1    -5.91569  -11.36211   17.93492
       H    -0.47483  -12.89303   17.83235
       O     0.45082  -12.53892   17.75877
      H1     0.38834  -11.68216   17.31258
       H    -1.20650   -8.36511   16.06140
       O    -1.37680   -7.43105   16.35605
      H1    -1.20123   -6.91483   15.55143
       H    -8.56520  -10.20537   14.32236
       O    -8.12658   -9.35124   14.31246
      H1    -7.32706   -9.66539   13.80337
       H    -6.83201  -13.34021   10.81673
       O    -6.87472  -14.15660   11.37638
      H1    -6.36878  -14.81685   10.79471
       H    -5.83967  -14.35945   12.65073
       O    -5.41934  -14.74533   13.48559
      H1    -6.02783  -15.44530   13.67482
       H    -6.09411   -9.44888   12.21717
       O    -5.82040   -9.94864   12.94086
      H1    -5.01744   -9.56364   13.33635
       H    -3.44403   -8.39419   16.44131
       O    -3.99314   -9.15975   16.70984
      H1    -4.89568   -8.84642   16.40979
       H    -4.46415  -13.11727   16.13530
       O    -3.85429  -13.23056   15.37866
      H1    -4.56056  -13.31918   14.67710
       H    -6.73302   -9.12290   17.28981
       O    -6.73825   -8.42505   16.56970
      H1    -7.18912   -8.88343   15.83328
       H    -2.32177  -11.23557   12.24998
       O    -2.65747  -11.34857   11.36469
      H1    -3.09366  -10.49257   11.28899
       H    -5.44129  -13.51426   17.44864
       O    -4.99963  -12.71499   17.84447
      H1    -4.24189  -13.03130   18.34629
       H     1.49209  -16.78368   16.55897
       O     1.00878  -16.04951   16.99624
      H1     0.10298  -16.39796   17.04404
       H    -1.59106  -14.05529   10.42759
       O    -1.85182  -13.29613    9.87503
      H1    -2.20476  -12.67513   10.52851
       H    -1.89519  -14.55973   19.03617
       O    -1.91612  -13.87200   18.32346
      H1    -2.16760  -14.56726   17.59319
       H    -4.20579  -16.45233   16.47280
       O    -3.46796  -15.90275   16.20571
      H1    -3.96128  -15.17198   15.83796
       H     0.68983  -14.47806   15.69461
       O     0.42127  -13.85991   14.98139
      H1     0.15889  -14.42094   14.21290
       H    -3.06651   -9.61244   19.43760
       O    -3.70157  -10.36908   19.36637
      H1    -3.84815  -10.32910   18.38817
       H    -3.70872  -15.24842   13.61378
       O    -2.81156  -15.56128   13.65024
      H1    -2.86013  -15.71564   14.57501
       H    -5.08400  -17.97305   17.97846
       O    -5.70431  -18.29741   17.36875
      H1    -6.54975  -18.38389   17.89272
       H    -2.28172  -12.22163   14.99077
       O    -1.54960  -11.83521   14.43960
      H1    -0.76323  -12.32827   14.55374
       H   -10.04647  -11.95160   14.56456
       O    -9.09496  -11.88060   14.49831
      H1    -8.78467  -12.79671   14.22372
       H    -2.73344   -8.22776   12.84897
       O    -3.43258   -8.57142   13.44635
      H1    -3.04565   -8.41462   14.35020
       H    -0.85778  -10.64382   15.59588
       O    -0.34870  -10.07239   16.14546
      H1     0.42267  -10.00646   15.60520
       H    -6.84919  -17.69807   13.19700
       O    -6.88760  -17.21605   14.02443
      H1    -6.48033  -17.94171   14.58462
       H    -2.58250  -18.82114   15.58953
       O    -3.11811  -19.35214   14.97243
      H1    -2.96419  -18.89976   14.10774
       H    -3.50024  -16.93416   12.82891
       O    -3.46401  -17.89961   12.49952
      H1    -4.44003  -18.04895   12.21398
       H    -6.83684  -15.67470   16.59988
       O    -6.35083  -15.08532   17.15514
      H1    -6.18775  -15.68739   17.93243
       H    -1.44466  -14.85115   12.92853
       O    -0.51237  -14.59283   12.58729
      H1    -0.42097  -15.22442   11.85270
       H    -5.12704  -12.02408   10.23250
       O    -5.81938  -11.60934   10.71644
      H1    -5.56076  -11.46076   11.66044

