90
frame 6 | Written by MDAnalysis XYZWriter (release 2.4.3)
       H    -8.26508   -8.39872  -17.38598
       O    -8.61112   -8.86979  -18.16082
      H1    -8.05808   -8.63562  -18.89661
       H    -6.48757  -12.61378  -14.58027
       O    -5.87013  -13.36006  -14.71752
      H1    -5.21873  -13.17327  -15.38730
       H    -7.29052  -11.47326  -10.36262
       O    -7.17206  -10.95983  -11.17512
      H1    -6.21839  -10.80736  -11.31349
       H    -0.41061   -9.16519  -11.22475
       O     0.49255   -9.16697  -11.53799
      H1     0.45387   -9.56066  -12.43293
       H   -10.58234  -10.79474  -13.97459
       O   -11.10422  -11.25856  -14.58063
      H1   -10.55550  -11.96652  -14.97273
       H    -1.14410   -6.34950  -10.67785
       O    -1.83041   -6.17945  -10.05424
      H1    -2.61527   -5.90549  -10.59320
       H    -8.34170  -12.32401  -12.48688
       O    -8.40074  -13.19400  -12.77940
      H1    -7.90914  -13.67885  -12.10410
       H    -2.45236  -10.74791  -16.98251
       O    -1.77011  -11.44881  -17.01563
      H1    -1.69451  -11.80155  -17.89888
       H    -7.99934   -5.20454  -10.61089
       O    -7.91854   -5.52361   -9.71999
      H1    -7.94172   -6.51048   -9.77232
       H    -7.33484  -10.74975  -16.56330
       O    -7.23617  -10.80738  -15.62988
      H1    -8.00897  -10.45169  -15.22156
       H    -4.80067   -9.73702  -12.63871
       O    -4.42018  -10.32721  -11.97824
      H1    -4.02956   -9.75866  -11.29699
       H    -4.77632  -13.12496  -13.28099
       O    -4.43126  -13.24794  -12.40156
      H1    -4.27545  -12.32724  -12.09801
       H    -8.62925  -10.04441  -12.29412
       O    -9.39740   -9.75903  -12.79253
      H1   -10.05666   -9.33710  -12.23590
       H    -7.40395   -9.16190  -10.20376
       O    -7.61808   -8.37808   -9.67843
      H1    -6.77719   -7.97621   -9.48939
       H   -11.53005   -5.00864  -13.27712
       O   -10.62994   -4.96869  -12.85394
      H1   -10.42622   -5.90276  -12.68534
       H    -2.72581   -5.46100  -16.04532
       O    -3.54286   -4.97420  -16.00339
      H1    -3.48043   -4.04206  -15.85942
       H    -6.74078   -6.81605  -16.76189
       O    -7.48458   -7.12330  -16.25305
      H1    -8.18852   -6.52523  -16.63110
       H    -5.03943   -9.16575  -16.83356
       O    -4.45252   -9.17165  -16.05814
      H1    -4.91129   -8.93205  -15.25057
       H    -0.45414   -7.66968  -14.32703
       O     0.20430   -7.23862  -13.78079
      H1     0.97380   -7.80892  -13.80840
       H    -6.36468   -8.24732  -13.72255
       O    -5.46614   -8.49009  -13.56189
      H1    -4.84896   -7.71086  -13.61729
       H    -4.98725  -10.26993  -18.78491
       O    -5.58936   -9.59712  -18.44823
      H1    -5.92293   -9.12123  -19.21723
       H    -4.72283   -6.49759   -9.92819
       O    -4.93372   -7.30925   -9.42787
      H1    -4.42614   -7.24284   -8.58115
       H    -2.35313  -10.97023  -12.81536
       O    -1.57114  -11.48543  -12.64628
      H1    -1.77454  -12.29978  -12.19470
       H    -4.19323   -4.35116  -10.98727
       O    -4.16494   -5.32448  -10.88541
      H1    -4.15997   -5.48334  -11.83691
       H    -3.50037   -5.97580  -14.14857
       O    -4.19653   -6.00709  -13.43542
      H1    -4.96855   -5.54907  -13.76025
       H    -8.83523   -3.98877  -12.34533
       O    -7.85714   -3.99084  -12.32085
      H1    -7.54968   -4.39108  -13.13646
       H    -5.08381   -5.96018  -17.16404
       O    -5.45627   -6.34601  -17.92375
      H1    -4.98272   -7.15879  -18.02117
       H    -6.47339   -4.18187  -15.18956
       O    -6.49185   -4.94478  -14.54812
      H1    -6.83579   -5.72190  -14.96086
       H    -2.13634   -8.10392  -10.12309
       O    -2.76300   -8.85736  -10.03864
      H1    -3.60745   -8.44233   -9.83224
       H    -2.88896   -8.03358  -15.65430
       O    -2.14909   -7.43800  -15.38304
      H1    -1.79397   -7.14052  -16.22607

