90
frame 3 | Written by MDAnalysis XYZWriter (release 2.4.3)
       H    -2.39029    4.02717    4.54352
       O    -2.92436    4.32171    3.78303
      H1    -3.67843    4.73859    4.33351
       H     0.54367    5.41097    7.21967
       O     0.74688    4.68042    6.63708
      H1     1.07773    5.20772    5.88514
       H    -1.37416    4.32199   10.55333
       O    -1.52499    3.63386    9.88363
      H1    -2.30982    3.99667    9.40992
       H    -0.82916   10.19230    5.92789
       O    -1.36551    9.68380    5.30163
      H1    -0.73102    9.19823    4.77558
       H    -3.69300    3.24507    7.78146
       O    -3.69915    4.17895    7.99056
      H1    -4.38338    4.26982    8.66638
       H     1.10396    0.87009    4.59546
       O     1.95790    1.28671    4.85091
      H1     2.54862    0.60483    4.58131
       H    -3.44808    8.77212    3.10031
       O    -4.34965    8.88836    3.18978
      H1    -4.28364    9.85686    3.16812
       H    -4.89677    1.12094    7.07712
       O    -4.63073    1.99717    6.76726
      H1    -5.16204    2.47078    7.42964
       H    -7.54697    4.30075    5.71729
       O    -6.95065    4.27165    6.51446
      H1    -6.14633    4.53140    6.04237
       H    -5.83364    6.16497    4.52744
       O    -5.42794    5.30439    4.47973
      H1    -5.58867    5.12534    3.52387
       H    -5.64547    8.39238    1.79289
       O    -6.18535    8.70408    1.07331
      H1    -6.79526    7.96928    0.95875
       H    -6.90490    2.42050    3.71817
       O    -7.83933    2.50982    3.52789
      H1    -8.06392    1.65459    4.00214
       H    -1.73297    5.41900    0.47943
       O    -2.33211    5.29436   -0.31018
      H1    -2.89476    6.05664   -0.49083
       H    -6.63842    8.39137    5.53600
       O    -6.48311    7.82250    4.78492
      H1    -5.72916    8.26466    4.41238
       H    -8.74935    6.06652    1.37116
       O    -7.85232    6.32680    1.09558
      H1    -7.42672    5.50408    0.97825
       H    -2.27355   -1.18078    4.47587
       O    -2.05272   -2.09412    4.77093
      H1    -2.20602   -2.49439    3.88626
       H    -0.78256    8.20334    0.91069
       O    -0.25962    8.03505    1.71250
      H1    -0.62794    7.19503    2.06320
       H    -2.04923    3.66553    6.71601
       O    -1.56100    3.51401    5.88154
      H1    -0.69784    3.96596    6.04901
       H     1.62120    2.58687    3.62529
       O     1.30461    3.35725    3.08391
      H1     1.41507    2.96512    2.18042
       H     2.25488    6.81457    0.89737
       O     2.33245    6.05811    1.50448
      H1     1.84709    6.32574    2.27013
       H    -0.23957    4.87639    2.45115
       O    -1.03413    5.37772    2.14212
      H1    -1.78969    4.95821    2.57864
       H     2.78645    5.61938    5.21869
       O     2.19790    6.11966    4.65257
      H1     1.91353    6.91379    5.16109
       H    -4.96031    3.87941   -0.73562
       O    -4.23696    3.38193   -0.27919
      H1    -3.43822    3.91822   -0.40856
       H    -2.35132    1.12284    4.43774
       O    -2.55429    0.36601    3.85935
      H1    -3.54721    0.33746    4.05073
       H     0.78864    7.32483    7.53060
       O     0.52412    6.72452    8.22225
      H1    -0.41569    7.08339    8.09719
       H    -2.55520    8.59128    8.12352
       O    -1.88169    7.98552    7.66183
      H1    -1.62882    8.52446    6.88980
       H    -5.39784    0.95232    0.76683
       O    -6.29141    0.85457    0.48778
      H1    -6.77430    1.29498    1.16729
       H    -3.44315    1.06496    1.53043
       O    -3.41549    0.85812    0.56585
      H1    -3.54901    1.79746    0.22408
       H    -6.89660    3.91572    1.63637
       O    -6.05431    4.36737    1.82543
      H1    -5.47032    3.99172    1.19449
       H    -4.90076    1.88188    4.88014
       O    -4.84388    2.08909    3.94241
      H1    -4.19009    2.77526    3.83791

