90
frame 5 | Written by MDAnalysis XYZWriter (release 2.4.3)
       H    -6.33095   12.76859   15.44037
       O    -6.92700   12.68583   16.18605
      H1    -7.18391   13.56089   16.44377
       H    -8.81639   11.13111   14.50048
       O    -9.38418   11.61841   15.11094
      H1    -8.73465   12.21296   15.54893
       H    -9.62246   14.39661   14.47649
       O   -10.22284   13.99631   13.83960
      H1   -10.13585   13.11246   14.13231
       H    -9.43085   13.49305   18.66060
       O    -9.81651   14.22055   18.16235
      H1    -9.66421   14.90383   18.78092
       H   -14.64752   12.13963   16.33673
       O   -14.24254   12.73627   15.73681
      H1   -14.29079   13.68590   15.96823
       H   -13.23697   15.51076   16.90394
       O   -13.88878   15.59144   16.14417
      H1   -14.33007   16.46942   16.18491
       H    -5.78379   17.65478   12.37487
       O    -6.06022   17.10769   13.14358
      H1    -6.47464   16.29634   12.84533
       H   -10.78048   16.45498   11.35675
       O   -10.25829   15.70242   10.99311
      H1   -10.77650   14.94100   11.36542
       H    -7.87116   16.64583   19.81546
       O    -6.95890   16.60329   19.45905
      H1    -7.02755   16.87748   18.51622
       H   -11.04433   18.34468   17.92327
       O   -11.61466   17.61217   17.52399
      H1   -10.99600   17.26333   16.81561
       H    -8.32642   14.80805   12.81460
       O    -7.39219   14.70621   12.79563
      H1    -7.32052   14.24624   13.67680
       H   -11.19189   10.72295   17.47764
       O   -12.04344   11.17736   17.54626
      H1   -12.28225   11.41074   16.61967
       H   -11.63566   15.21624   14.08905
       O   -12.13651   16.07647   14.10760
      H1   -12.74570   15.94525   14.82394
       H    -4.42044   12.03310   14.08970
       O    -5.26135   12.25641   13.65945
      H1    -5.15662   12.33057   12.69980
       H   -12.24879   17.01221   12.80512
       O   -12.05016   17.59976   11.98193
      H1   -11.84991   18.43547   12.46023
       H    -8.83029   15.75531   15.72458
       O    -8.70947   14.77550   15.84901
      H1    -8.93149   14.61078   16.77392
       H   -12.81781   13.43117   12.14748
       O   -12.73186   14.13311   11.47074
      H1   -12.76354   13.63635   10.63701
       H   -12.93373   16.86287   18.88664
       O   -13.33724   16.39390   19.64994
      H1   -14.10534   16.98340   19.85497
       H    -8.90458   17.65869   15.99308
       O    -9.68989   17.22216   15.53668
      H1    -9.76788   17.67275   14.66566
       H   -12.53496   13.14140   17.53374
       O   -12.44462   14.02953   17.91209
      H1   -11.48674   14.11404   17.90792
       H    -3.82173   19.59961   14.62212
       O    -4.30993   18.79157   14.84167
      H1    -4.39096   18.32603   13.99462
       H    -9.15357   10.31527   16.24610
       O    -9.32248    9.61024   16.90853
      H1    -8.71429    9.78193   17.67750
       H    -5.81132   16.13688   14.82298
       O    -5.71139   15.94532   15.76656
      H1    -4.85257   16.28286   15.98190
       H    -6.83633    9.41356   14.05925
       O    -7.21142   10.24514   13.70172
      H1    -6.50641   10.91685   13.66787
       H    -7.74408   18.44400   13.07747
       O    -8.50015   19.08966   13.07762
      H1    -8.70957   19.13701   12.10232
       H    -3.28811   17.68144   15.84433
       O    -2.99027   16.87980   16.30590
      H1    -2.32097   17.13504   16.96895
       H    -9.02002   17.95189   10.07441
       O    -9.42615   18.74335   10.46934
      H1    -9.00482   19.42241    9.97101
       H    -6.73368   17.18656   16.48804
       O    -7.31756   17.79932   16.96061
      H1    -6.73847   18.48735   17.23348
       H    -7.37948   14.71483   10.67717
       O    -7.54592   15.05341    9.79333
      H1    -8.33870   14.62771    9.53495
       H    -5.06142   10.30408   18.09544
       O    -5.60519   10.33002   17.28013
      H1    -6.05127   11.20777   17.19966

