90
frame 3 | Written by MDAnalysis XYZWriter (release 2.4.3)
       H    -9.17298   11.68257  -10.36178
       O    -8.31995   11.28151  -10.20202
      H1    -7.90038   11.53786  -11.03305
       H   -11.71408    9.13911  -10.54319
       O   -11.04693    8.44079  -10.46579
      H1   -10.49031    8.71482   -9.72656
       H   -12.77106    5.07489   -8.55210
       O   -13.40653    5.29355   -7.84229
      H1   -13.78146    4.37663   -7.76916
       H   -12.86908    9.67526   -1.74189
       O   -13.01080    8.73186   -1.80057
      H1   -13.43980    8.65030   -2.65881
       H    -6.67543   12.59515   -7.27880
       O    -6.99489   13.47969   -7.35551
      H1    -6.82247   13.73788   -6.42498
       H   -13.23823    6.74245   -5.09198
       O   -13.21919    5.77851   -5.06828
      H1   -13.28658    5.71623   -6.08133
       H   -15.01778   10.26510   -8.59766
       O   -15.08811   11.17006   -8.19882
      H1   -15.97383   11.42127   -8.24080
       H    -9.03666    8.48129   -7.13670
       O    -8.44530    8.42788   -6.37752
      H1    -8.80628    7.64460   -5.88658
       H    -7.37072    7.68338   -7.81736
       O    -6.97405    7.51853   -8.70425
      H1    -6.49315    6.65498   -8.51064
       H   -12.27197   13.36121   -3.51414
       O   -11.78656   13.48838   -2.69100
      H1   -12.10715   12.77641   -2.14770
       H    -9.08206   11.21455   -1.83448
       O    -9.73591   11.00632   -1.07735
      H1    -9.51539   10.05723   -1.04052
       H   -12.06554    9.66605   -6.60229
       O   -11.86086    9.28034   -5.75001
      H1   -11.05518    9.76020   -5.46636
       H   -16.63810   10.36533   -2.49806
       O   -15.89371    9.95038   -2.01420
      H1   -15.30046    9.72237   -2.71449
       H    -9.72257   13.65428  -10.14543
       O   -10.39704   12.96889   -9.88848
      H1   -10.35423   13.04282   -8.90313
       H    -8.59740   11.60653   -3.73866
       O    -8.31262   12.24103   -3.08136
      H1    -7.51646   11.99677   -2.61672
       H    -8.24573   14.12163   -5.15301
       O    -7.38514   14.58379   -5.00237
      H1    -7.08115   14.12561   -4.19565
       H   -10.37683    6.75563   -4.80102
       O    -9.44228    6.56394   -4.74296
      H1    -9.36120    6.27805   -3.78830
       H    -8.60648   13.71493   -7.61146
       O    -9.50937   14.02857   -7.39403
      H1    -9.42100   14.99850   -7.30697
       H    -8.89928    9.48450   -4.92028
       O    -9.49668    9.97820   -4.36025
      H1    -9.55024    9.40206   -3.56103
       H   -10.43128   10.23735   -8.62032
       O    -9.61744    9.66146   -8.54728
      H1    -9.05696   10.22118   -9.11648
       H    -8.50871    8.14346   -0.57864
       O    -9.45339    8.38750   -0.54550
      H1    -9.69084    8.33990    0.38856
       H   -14.92859   11.38963   -6.47078
       O   -14.99607   11.55255   -5.48561
      H1   -15.24209   10.68774   -5.12258
       H   -12.31989   13.64054   -6.61989
       O   -12.07566   13.59684   -7.59867
      H1   -11.12795   13.79802   -7.54991
       H   -13.48228    9.05230   -4.67917
       O   -14.28638    8.66015   -4.26240
      H1   -14.85170    8.30189   -4.92095
       H   -12.32156   11.56963   -8.03771
       O   -12.08277   10.71109   -8.42066
      H1   -12.35146   10.85057   -9.31761
       H   -10.34828    5.73721   -1.96919
       O    -9.36438    5.82925   -2.08017
      H1    -9.22483    6.70825   -1.78082
       H    -5.60265   10.25959   -8.05085
       O    -6.36803   10.83518   -7.90736
      H1    -6.98573   10.24989   -7.50263
       H   -13.01384   10.94051   -0.30642
       O   -12.51832   11.27244   -1.07915
      H1   -11.55671   11.21058   -0.81557
       H    -8.34350    3.84729   -5.41896
       O    -9.31512    4.02669   -5.66053
      H1    -9.23977    4.97703   -5.46418
       H   -13.50963   14.09032   -4.79482
       O   -13.07769   13.28107   -5.06407
      H1   -13.76253   12.57898   -5.18680

