90
frame 3 | Written by MDAnalysis XYZWriter (release 2.4.3)
       H   -12.75866    7.38891   13.61858
       O   -11.94614    7.06544   14.05815
      H1   -11.66024    7.77198   14.62047
       H   -18.58682    6.40003   10.11011
       O   -18.47449    6.41358   11.05206
      H1   -18.69972    7.29195   11.29147
       H   -18.41470    1.54893   11.73890
       O   -18.49084    2.09210   10.94771
      H1   -17.65110    2.62374   11.03915
       H   -15.66401    7.91822   10.51099
       O   -16.17707    7.79886   11.30079
      H1   -16.63520    6.95330   11.10684
       H   -16.52274   -0.41962   11.97086
       O   -17.33767   -0.81446   12.38605
      H1   -17.47906   -0.23914   13.18156
       H   -17.78374    3.27589   16.31439
       O   -17.22168    2.46776   16.32331
      H1   -16.31932    2.79884   16.28690
       H   -10.68769    3.97361   14.03380
       O   -10.84242    4.51898   13.25404
      H1   -11.30414    5.25048   13.72213
       H   -15.55056    8.83611   14.18894
       O   -14.90787    8.39059   13.69291
      H1   -15.38824    8.15449   12.87315
       H   -14.12741    3.51851   14.89061
       O   -14.76506    3.92034   15.45580
      H1   -14.16953    4.20499   16.12502
       H   -15.95796    7.45189    5.32884
       O   -15.87383    7.23837    6.22787
      H1   -15.55663    8.04054    6.67526
       H   -18.64958    1.76856   13.94524
       O   -18.00459    1.13440   14.22080
      H1   -17.61984    1.53824   15.02107
       H   -18.67741   10.02367   11.21360
       O   -18.71408    9.21902   11.75865
      H1   -17.83438    8.83882   11.57401
       H   -17.76823    4.71533   14.82411
       O   -18.36199    5.10704   15.55100
      H1   -17.68043    5.45883   16.17209
       H   -14.54460   -0.34006   14.01173
       O   -14.99169   -0.60358   14.78463
      H1   -14.22196   -0.66523   15.44515
       H   -11.23024    6.32487    9.62634
       O   -12.21944    6.13724    9.45573
      H1   -12.09677    5.57264    8.72993
       H   -16.80187    4.68061   10.71117
       O   -16.66362    3.88816   11.28977
      H1   -16.70920    4.31728   12.17488
       H   -14.97837    1.38939    6.26059
       O   -15.46191    1.43753    7.10976
      H1   -15.07566    2.25638    7.46797
       H   -16.01208    6.04455   13.49549
       O   -16.31397    5.14765   13.61572
      H1   -15.50582    4.76171   14.02648
       H   -16.92928    6.03775    7.75935
       O   -16.97512    5.51897    8.51938
      H1   -16.38027    4.77715    8.39786
       H   -15.54246    0.65962    9.00151
       O   -15.49114    0.19991    9.86245
      H1   -15.38435   -0.69218    9.43906
       H   -18.56903    0.95307    9.57154
       O   -19.01736    0.37389    8.93028
      H1   -18.50030   -0.45434    9.01486
       H   -14.04464    4.17003    7.38984
       O   -14.48741    3.68006    8.12531
      H1   -13.73326    3.42783    8.68203
       H   -14.53632    1.73896   12.18996
       O   -14.42926    2.67560   12.21874
      H1   -15.10933    2.93080   11.60329
       H   -12.42449    1.90851   11.40435
       O   -11.55345    1.84426   11.87752
      H1   -11.67699    2.69231   12.37623
       H   -14.25629    6.34815    6.28602
       O   -13.39955    5.90537    5.98493
      H1   -13.78603    5.25747    5.38095
       H   -18.33633    4.37481    7.81208
       O   -18.50192    3.52152    7.40579
      H1   -19.09449    3.15843    8.08090
       H   -13.13048   -0.64578   12.84446
       O   -13.90466   -0.34157   12.31193
      H1   -14.18605   -1.15840   11.85651
       H   -13.74237    8.89057    9.61444
       O   -14.20060    8.08350    9.30409
      H1   -13.67048    7.32397    9.71804
       H   -17.44181    3.83841    5.71879
       O   -17.03682    4.42216    4.98449
      H1   -17.38422    5.30896    5.17355
       H   -16.48346    0.86834    4.34261
       O   -17.18154    0.91894    4.98081
      H1   -16.71698    0.95351    5.89333

