90
frame 2 | Written by MDAnalysis XYZWriter (release 2.4.3)
       H   -12.93687  -17.31246   -6.66248
       O   -13.68996  -16.69771   -6.43534
      H1   -13.27049  -16.46874   -5.54430
       H   -14.58967  -13.08180   -8.24839
       O   -15.37491  -13.34556   -7.73016
      H1   -15.55385  -14.26827   -7.81565
       H   -12.48923  -15.06866  -13.53864
       O   -11.97247  -15.37571  -14.34657
      H1   -12.34579  -16.30598  -14.40029
       H   -11.53325   -8.92010  -11.04138
       O   -11.98365   -9.47536  -11.69235
      H1   -12.23111  -10.24748  -11.14858
       H   -12.62069  -12.44833   -9.16465
       O   -13.21394  -13.14437   -9.37319
      H1   -12.55944  -13.90329   -9.22929
       H   -11.89311  -13.21681   -3.23515
       O   -12.16570  -13.59099   -4.10538
      H1   -11.85184  -14.50167   -4.05220
       H   -16.77206   -7.71647   -9.54332
       O   -16.48060   -8.06701  -10.39835
      H1   -16.03535   -8.90744  -10.06962
       H   -10.56413  -17.52286   -9.67742
       O    -9.91321  -16.89495  -10.05043
      H1   -10.28092  -16.10025   -9.61162
       H    -9.01572   -9.48050   -6.51541
       O    -9.68799   -9.86173   -7.15233
      H1    -9.80499  -10.74777   -6.68897
       H   -14.14126  -17.92456  -13.66342
       O   -13.20052  -17.92425  -13.70046
      H1   -13.05113  -17.62905  -12.74781
       H   -15.90219  -12.81222  -13.70549
       O   -15.85940  -13.22356  -12.84520
      H1   -15.11071  -13.84954  -12.96092
       H    -8.41219  -14.93942   -6.61375
       O    -9.33037  -15.08326   -6.23334
      H1    -9.59567  -14.12271   -6.14309
       H   -10.51655  -12.00562  -12.62940
       O   -10.41826  -11.30673  -13.32964
      H1   -10.74053  -10.49738  -12.83395
       H   -14.90938  -10.77541   -9.86835
       O   -15.38311  -10.19997   -9.26166
      H1   -14.76300   -9.77718   -8.59964
       H   -12.39760  -10.56888   -7.67794
       O   -11.93486  -10.86324   -8.49116
      H1   -11.12680  -10.38499   -8.30653
       H   -14.94232  -11.67030  -12.29151
       O   -14.30131  -10.98599  -11.96554
      H1   -14.73449  -10.20765  -12.35309
       H   -10.58619  -12.61244   -5.21853
       O   -10.23659  -12.38495   -6.07467
      H1   -10.93900  -12.60155   -6.71459
       H   -17.94532  -14.47173   -8.52117
       O   -17.71150  -13.66602   -9.03466
      H1   -16.89854  -13.32215   -8.57751
       H   -13.45209  -13.83040  -11.26137
       O   -13.35421  -14.53125  -11.99267
      H1   -13.34729  -15.34480  -11.51549
       H    -8.13614  -10.71194  -11.46520
       O    -8.39458  -11.25789  -10.68194
      H1    -7.65367  -11.87283  -10.64207
       H    -9.41369  -12.67851  -11.05164
       O   -10.00387  -13.37056  -11.36350
      H1    -9.35259  -13.96478  -11.72121
       H   -17.10821  -14.35664  -12.06717
       O   -17.65261  -14.97832  -11.52414
      H1   -17.67772  -14.40526  -10.69318
       H   -13.13236   -8.07476   -7.20067
       O   -13.31315   -8.28765   -8.13824
      H1   -12.38913   -8.22619   -8.49963
       H   -14.40987  -16.99971  -10.78236
       O   -13.54724  -17.05017  -11.17786
      H1   -13.08782  -17.79149  -10.75709
       H   -14.20532  -11.97245   -6.54104
       O   -13.81949  -11.10766   -6.31606
      H1   -14.40713  -10.79699   -5.66951
       H   -17.43646  -10.91094   -7.08764
       O   -17.35837   -9.96163   -6.81255
      H1   -16.85860   -9.56818   -7.59571
       H   -15.89205  -18.00943  -10.11885
       O   -15.93324  -17.01708  -10.11656
      H1   -16.65746  -16.69229  -10.66838
       H   -15.21274  -16.23967   -7.18884
       O   -16.05627  -15.95968   -7.62809
      H1   -15.95016  -16.37289   -8.53556
       H    -9.79460  -14.49784   -8.19573
       O   -10.46919  -14.41825   -8.86583
      H1   -10.00550  -14.01165   -9.61180
       H   -16.74680  -14.22577   -4.92936
       O   -15.78490  -14.14254   -5.03619
      H1   -15.61902  -14.02330   -5.98091

