90
frame 3 | Written by MDAnalysis XYZWriter (release 2.4.3)
       H    -3.47021   -6.05969    4.49058
       O    -4.37366   -6.41257    4.28787
      H1    -4.75053   -6.29012    5.18794
       H    -3.49258   -1.38364    9.87971
       O    -3.91441   -2.05627    9.34836
      H1    -3.18472   -2.60907    9.01711
       H    -9.59747   -1.59995    7.47466
       O   -10.48211   -1.59640    7.13294
      H1   -10.46131   -2.58146    6.79895
       H    -8.63971   -7.59691   12.50893
       O    -7.89787   -7.69632   11.88236
      H1    -8.35251   -7.45442   11.04693
       H    -3.68788   -3.61971   12.50765
       O    -4.07583   -2.78745   12.18575
      H1    -3.72036   -2.68069   11.24224
       H    -1.00586   -5.91911    6.62557
       O    -1.62148   -6.50092    7.08381
      H1    -2.51127   -6.29533    6.69945
       H    -5.58164   -1.05950    3.63183
       O    -5.24100   -1.68694    2.99800
      H1    -5.53165   -1.30115    2.14331
       H    -6.82727   -7.85505    7.00214
       O    -7.75764   -7.66408    6.79571
      H1    -8.24568   -7.53340    7.60627
       H   -12.21152   -6.75553    7.54689
       O   -11.26933   -6.93888    7.53428
      H1   -10.90536   -6.32382    6.85493
       H    -9.24218   -7.85909    5.97637
       O    -9.75841   -7.86075    5.12822
      H1   -10.68082   -8.03439    5.45047
       H    -4.48489   -9.04987    8.48063
       O    -5.47517   -8.92306    8.39600
      H1    -5.76089   -9.68822    8.86181
       H    -8.83246   -2.58422    3.43626
       O    -8.23800   -1.88048    3.20481
      H1    -7.36158   -2.29368    3.17376
       H    -5.06525   -3.37752    2.34840
       O    -5.16379   -4.32149    2.02683
      H1    -4.64397   -4.77061    2.73013
       H    -2.27355   -1.18078    4.47587
       O    -2.05272   -2.09412    4.77093
      H1    -2.20602   -2.49439    3.88626
       H    -6.18583   -5.32352   13.29351
       O    -6.02711   -5.44788   12.35050
      H1    -6.63753   -6.09521   11.99833
       H    -5.11398   -1.73430    8.24444
       O    -5.91673   -1.27208    7.82295
      H1    -6.54639   -1.25717    8.56680
       H    -9.70240   -1.63900    9.06864
       O    -8.73158   -1.47018    9.14677
      H1    -8.55925   -0.59449    9.48357
       H    -6.88295   -4.70158    1.68235
       O    -7.79954   -4.64222    1.30843
      H1    -8.35439   -4.80041    2.03702
       H    -7.97413   -2.76084   10.51870
       O    -7.94498   -3.62144   10.93324
      H1    -7.03738   -3.63836   11.21363
       H     0.20414   -6.26051    9.49305
       O    -0.71352   -6.02748    9.54197
      H1    -1.02096   -6.26175    8.62462
       H    -9.49060   -8.43088    9.72377
       O    -9.30499   -7.49742    9.43585
      H1   -10.14320   -7.24586    8.98027
       H    -9.65179   -4.56690    5.53215
       O    -9.95290   -4.32206    6.43932
      H1    -9.19649   -4.39018    6.96884
       H    -7.54831   -3.17368    8.14627
       O    -7.64503   -4.15221    8.02361
      H1    -7.32803   -4.49791    8.89859
       H    -5.30788   -5.81387    7.75497
       O    -5.45293   -5.42981    6.88626
      H1    -6.23684   -4.90891    7.01452
       H    -6.92287   -0.08157    5.44018
       O    -6.06917   -0.57418    5.27690
      H1    -5.79687   -0.87555    6.16675
       H    -5.45946  -10.53823    5.58754
       O    -6.35218  -10.46900    5.95610
      H1    -6.14423   -9.88431    6.70207
       H    -4.03553   -3.94467    7.02466
       O    -3.13017   -3.73811    7.29254
      H1    -2.91209   -2.90837    6.74723
       H    -9.97821   -5.59423    3.22572
       O    -9.22246   -5.41848    3.79505
      H1    -9.20558   -6.32449    4.20053
       H    -4.97132   -7.29594    9.37039
       O    -5.28711   -6.42489    9.69844
      H1    -4.86789   -6.24947   10.52472
       H    -9.52422    0.61393    4.87890
       O    -8.55742    0.33244    4.91691
      H1    -8.59070   -0.50968    4.44408

