90
frame 3 | Written by MDAnalysis XYZWriter (release 2.4.3)
       H    12.26421   -7.57239    2.72786
       O    12.73738   -7.98237    3.48707
      H1    13.49249   -8.35151    3.07993
       H    16.15079    0.38556    3.80024
       O    16.25314   -0.59299    3.89631
      H1    15.91958   -1.03846    3.06990
       H    11.62881   -7.23335   -0.36789
       O    12.02101   -7.47752   -1.19959
      H1    12.87390   -7.82751   -0.87212
       H    11.92577   -3.85708    0.36307
       O    11.56828   -3.91221    1.27185
      H1    11.07230   -3.09502    1.37980
       H    14.27147   -3.22811    1.86619
       O    14.55676   -2.32140    1.61578
      H1    14.15796   -2.31784    0.72876
       H     8.53847   -4.96657    3.59983
       O     7.56866   -5.06039    3.70136
      H1     7.73679   -5.75142    4.36582
       H    13.69064   -5.57699    4.47005
       O    13.08242   -5.99610    5.09854
      H1    12.63811   -6.55782    4.44385
       H    16.58716   -3.18180    1.15326
       O    17.39156   -3.57987    1.63646
      H1    18.06405   -3.87802    0.95530
       H    14.55131   -4.52681    7.80216
       O    15.19569   -5.18295    8.20139
      H1    14.93804   -5.13042    9.11331
       H    14.73963   -8.55038    0.64373
       O    13.80271   -8.68533    0.48451
      H1    13.56540   -9.55331    0.87638
       H    10.00037   -7.92115    5.65622
       O     9.78905   -8.88098    5.72953
      H1    10.73341   -9.10782    5.88870
       H    12.28684  -10.14014    2.86254
       O    12.67083  -11.00597    2.60455
      H1    12.38898  -11.00333    1.64135
       H    16.87242   -7.01285    8.09065
       O    17.61588   -6.76818    7.49054
      H1    17.15418   -6.52740    6.68110
       H    17.61304   -8.40688    4.15394
       O    18.31999   -8.15377    3.53076
      H1    17.95799   -7.27585    3.31251
       H    12.23379   -9.37773    7.17384
       O    12.50673   -9.34639    6.24218
      H1    12.97548   -8.49728    6.26985
       H    15.29534   -8.51739    8.41104
       O    15.51618   -7.77986    8.94425
      H1    14.92126   -7.09167    8.50132
       H    15.79297   -0.74584    5.74758
       O    15.68742   -0.98836    6.68111
      H1    15.13269   -0.24294    6.95324
       H    16.67671   -6.70684    1.39127
       O    16.57801   -6.22075    2.27271
      H1    16.86831   -5.35645    1.97165
       H    12.28063   -6.97694    8.36184
       O    12.40979   -7.89476    8.63376
      H1    11.50257   -8.17991    8.69762
       H    11.13484   -5.43142    1.37261
       O    11.24367   -6.43056    1.51242
      H1    10.43134   -6.73353    1.08807
       H    12.40786   -1.83359    4.54469
       O    11.90912   -2.60266    4.94455
      H1    12.48896   -2.86857    5.73744
       H    11.00625   -4.36952    7.90207
       O    11.49918   -5.19340    7.75990
      H1    11.69485   -5.12681    6.81152
       H    14.44338  -10.30264    3.10754
       O    15.11310   -9.58982    3.18842
      H1    15.93075   -9.96076    2.79555
       H     8.56635   -6.05532    6.96498
       O     8.91663   -6.02019    6.01286
      H1     9.82356   -5.70098    6.16727
       H    12.51690   -0.02512    1.92878
       O    12.31992   -0.77773    2.54214
      H1    12.99761   -1.48538    2.43797
       H    15.93576   -9.08757    4.80728
       O    16.42476   -8.82798    5.58417
      H1    16.99786   -9.60833    5.71177
       H    14.93273   -5.36047    2.57037
       O    14.09803   -4.80925    2.50335
      H1    13.43071   -5.43979    2.20908
       H    15.31745  -10.73939    7.52899
       O    14.41991  -10.52878    7.67220
      H1    14.01758  -10.23288    6.82560
       H    10.77078   -4.86119    3.12163
       O    10.11467   -4.48956    3.74912
      H1    10.70638   -3.79602    4.07937
       H    14.15555   -2.03599    7.05594
       O    13.48032   -2.73406    7.16159
      H1    13.11983   -2.50298    7.97932

