90
frame 3 | Written by MDAnalysis XYZWriter (release 2.4.3)
       H    17.75361   -1.03331   10.58482
       O    17.71057   -0.13639   10.18743
      H1    18.64249   -0.03984    9.96405
       H    14.51177    0.53903   13.20426
       O    14.96826   -0.26070   13.53251
      H1    15.74294    0.20391   13.92135
       H    16.42022    2.80334   10.75561
       O    16.47692    2.00273   11.34352
      H1    16.81210    1.33644   10.67930
       H    13.12865    5.87581   12.53284
       O    13.95405    5.42836   12.40200
      H1    13.78946    4.68803   11.78921
       H    15.84951    0.60996    9.04648
       O    15.32637    1.27309    8.59999
      H1    15.89626    1.71739    7.99039
       H    14.68464    2.74880    9.33896
       O    14.72451    3.67734    9.41064
      H1    15.06570    3.97152    8.53414
       H    15.33982    5.73410   13.48130
       O    15.91142    6.24141   14.06853
      H1    16.32367    5.45596   14.43625
       H    19.11580   -1.66150   14.81073
       O    19.07694   -2.06487   13.90947
      H1    19.27983   -2.94413   14.26059
       H    17.90901   12.25958   12.14370
       O    18.39472   11.57462   12.62498
      H1    17.92683   10.74191   12.47756
       H    16.20374    3.78046   17.39116
       O    16.30735    4.67095   17.09433
      H1    15.45304    4.82593   16.70366
       H    14.41902    9.98133   14.39845
       O    14.53565   10.17192   13.44125
      H1    15.17917    9.46348   13.17912
       H    14.54019    6.23995   15.40941
       O    13.72435    5.91123   15.84693
      H1    13.68805    6.53511   16.57149
       H    19.52843    6.31943   14.93522
       O    18.86247    6.97540   14.55898
      H1    18.05964    6.41149   14.51074
       H    18.13013    0.18932   11.88830
       O    18.67079    0.51198   12.58730
      H1    19.28522   -0.21993   12.72527
       H    17.97673    1.27221   16.21011
       O    18.01111    1.82748   17.01231
      H1    18.76511    1.46700   17.50176
       H    13.80684    2.55305   13.01245
       O    14.00008    2.01494   12.22807
      H1    14.94475    2.39464   12.04852
       H    15.72471    1.63925   17.01162
       O    14.95384    2.17148   17.18771
      H1    14.68421    1.83157   18.05221
       H    17.72254    3.42987    6.90260
       O    17.57958    2.64197    6.39739
      H1    18.38068    2.21882    6.74928
       H    16.99262    1.92505   14.57625
       O    17.11032    0.97390   14.73705
      H1    17.51076    0.71087   13.86528
       H    15.00536    5.08371    6.29742
       O    15.18125    5.40302    7.20814
      H1    14.28159    5.77963    7.41789
       H    13.40890    4.13086   14.89483
       O    13.92118    3.24324   14.72977
      H1    13.82855    2.79529   15.57946
       H    19.26409    5.56492   11.73310
       O    18.37537    5.12953   11.73554
      H1    18.65673    4.36440   12.31165
       H    18.02781   -1.99515   12.42511
       O    17.58212   -2.29792   11.58212
      H1    16.62833   -2.16922   11.78082
       H    18.56072    7.20304    8.73388
       O    18.88774    7.96759    8.23829
      H1    19.27297    7.59232    7.41792
       H    18.36591    3.26350   13.78506
       O    19.29677    3.27933   13.47156
      H1    19.24177    2.85087   12.63993
       H    18.15788    4.26896    9.30914
       O    18.24325    3.32226    9.19335
      H1    18.80400    2.97105    9.93334
       H    17.27753    5.77681   10.06386
       O    17.39165    5.80521    9.12183
      H1    16.60042    5.49380    8.77573
       H    18.84578    4.28907   17.61189
       O    19.20906    4.69071   18.41424
      H1    19.04338    4.02331   19.06460
       H    15.49913    3.48362   14.60790
       O    16.49257    3.52141   14.64869
      H1    16.65261    3.83405   15.56074
       H    18.03347    8.75264   11.97582
       O    17.05273    8.52503   12.06859
      H1    16.88189    8.08120   12.91783

