90
frame 2 | Written by MDAnalysis XYZWriter (release 2.4.3)
       H    -0.35107   18.49562  -13.86867
       O    -0.31010   19.24296  -13.35771
      H1     0.63948   19.35834  -13.40057
       H     3.49957   16.26571  -17.49668
       O     3.96035   16.87490  -18.09102
      H1     3.45608   16.88415  -18.90210
       H    -2.84965   17.67922  -12.42379
       O    -3.68225   17.82193  -12.90925
      H1    -3.54845   17.21768  -13.67183
       H     8.19788   16.27496  -16.15209
       O     8.70995   16.42939  -15.38052
      H1     8.52758   17.38957  -15.20968
       H    -1.36999   16.60324  -14.77329
       O    -0.49422   16.91117  -14.97539
      H1    -0.00641   16.51044  -14.24590
       H     5.25210   19.59711   -7.16570
       O     6.18694   19.76343   -7.38570
      H1     6.33319   19.13916   -8.14055
       H     1.99027   16.28433  -11.61440
       O     1.95927   17.22502  -11.38577
      H1     1.98535   17.66554  -12.28071
       H    -1.63956   18.36442  -18.36153
       O    -2.21461   19.06622  -18.10610
      H1    -1.84028   19.27819  -17.22048
       H     1.06001   12.90474  -17.33425
       O     0.91181   13.83176  -17.00330
      H1     1.71489   14.10485  -16.60099
       H     2.95776   18.38648  -17.71849
       O     2.26836   18.98564  -17.41096
      H1     1.51312   18.36306  -17.57889
       H     4.60813   17.12061   -7.96683
       O     3.92759   17.79553   -7.66117
      H1     3.19131   17.67146   -8.28629
       H     8.84831   19.22372  -14.02630
       O     8.08666   18.76335  -14.43014
      H1     8.06631   19.25931  -15.26277
       H     0.97052   15.07703  -18.42603
       O     0.65167   15.67198  -19.19073
      H1    -0.32112   15.42307  -19.15233
       H     1.15116   13.96539  -11.36002
       O     1.54904   14.56667  -12.01355
      H1     1.76495   13.90138  -12.67429
       H    -0.67825   16.92956  -10.32659
       O    -1.52504   17.36041  -10.61074
      H1    -2.21620   17.13084   -9.97032
       H     3.08065   18.25005  -14.48426
       O     2.49541   18.43963  -13.77304
      H1     2.95465   19.24003  -13.50917
       H     9.21051   15.87882  -13.43309
       O     9.04511   15.38965  -12.60608
      H1     8.11857   15.23508  -12.58603
       H     3.78168   14.66748  -15.51628
       O     3.10456   15.29090  -15.82847
      H1     3.48272   16.19594  -15.61903
       H     5.52113   16.93907  -15.33599
       O     4.84803   17.38979  -14.83534
      H1     5.40284   18.06975  -14.37229
       H     5.96399   18.35203  -10.32946
       O     6.94598   18.58073  -10.02345
      H1     7.00227   19.54700  -10.13595
       H     4.71454   14.03958  -12.75176
       O     5.23364   14.01492  -11.97212
      H1     5.32741   14.97225  -11.75001
       H     8.46383   18.64830  -11.64222
       O     9.22887   19.09836  -11.98382
      H1     9.07438   19.92930  -11.51692
       H     2.64903   13.06955  -10.77859
       O     3.53462   12.84922  -10.45143
      H1     4.06113   13.33229  -11.13902
       H    -3.73990   15.38785  -15.14170
       O    -3.25149   16.18117  -14.89582
      H1    -3.76506   16.78576  -15.43913
       H     6.80263   15.33745  -17.41834
       O     6.38920   15.31568  -16.50167
      H1     6.82701   14.53153  -16.11216
       H     3.84048   17.32579  -10.95633
       O     4.78478   17.17559  -11.24216
      H1     4.80597   17.33370  -12.19466
       H     0.22786   16.87910  -18.20744
       O    -0.14941   17.63520  -17.68666
      H1    -0.39042   17.21432  -16.82440
       H     9.74242   17.17121   -9.49805
       O     9.22713   17.57202   -8.84404
      H1     8.48010   17.75674   -9.45789
       H     1.05067   17.46109   -8.34251
       O     1.28866   18.24899   -8.87584
      H1     1.34878   17.82249   -9.78896
       H     3.91998   12.52717  -15.40238
       O     4.37281   13.09413  -14.77447
      H1     5.06052   12.46334  -14.51574

