90
frame 3 | Written by MDAnalysis XYZWriter (release 2.4.3)
       H    15.64077    5.14476  -20.02624
       O    14.87805    5.41565  -19.51375
      H1    15.28889    5.75575  -18.73051
       H    12.59066    4.71381  -17.47428
       O    11.79813    5.27056  -17.17586
      H1    11.07232    4.59575  -17.21516
       H    12.35630    8.61229  -13.35737
       O    11.55738    8.32517  -13.78506
      H1    11.76441    7.40136  -14.07659
       H    10.26713    9.34728  -17.26983
       O    10.51126    9.22096  -18.18750
      H1    10.38575   10.18015  -18.48695
       H    14.43530   10.77217  -16.47382
       O    15.39577   10.76298  -16.25782
      H1    15.58536   10.05089  -16.91723
       H    16.96643    7.08810  -15.94401
       O    17.77188    6.59145  -15.92600
      H1    18.30900    7.06295  -16.54535
       H    13.74248    3.46244  -18.90804
       O    13.51315    3.09267  -18.04922
      H1    13.16322    2.23061  -18.22623
       H     8.94270    6.15096  -17.47619
       O     8.63223    7.11676  -17.39512
      H1     9.21115    7.56437  -18.06814
       H    12.74522   -1.46727  -17.63588
       O    12.18255   -2.24365  -17.47519
      H1    11.25564   -1.87460  -17.32425
       H    15.76288    8.26229  -14.23206
       O    15.12140    8.55713  -14.90540
      H1    15.55016    9.40082  -15.15869
       H    18.33795    7.78704  -19.71802
       O    18.61293    7.35771  -18.89502
      H1    18.53385    6.43517  -19.10637
       H    15.20335    4.96907  -13.50367
       O    14.85519    5.86922  -13.56342
      H1    13.92865    5.82287  -13.87806
       H     9.25680    3.30993  -16.23232
       O     9.43223    4.06583  -16.81072
      H1     8.91667    3.74974  -17.56912
       H    11.99293    5.44386  -15.38327
       O    12.27673    5.61388  -14.47762
      H1    11.81595    4.91274  -13.93962
       H    15.72753    8.67394  -18.57489
       O    16.22896    8.39850  -17.74809
      H1    17.04032    8.02741  -18.13917
       H    15.73302    3.26022  -17.08358
       O    16.22550    2.48449  -16.66026
      H1    15.58453    1.82781  -16.54688
       H    18.02706    4.45880  -18.15694
       O    17.20903    5.00109  -18.17550
      H1    17.15745    5.35087  -17.28139
       H    17.67852    0.21979  -18.92064
       O    16.83808    0.59917  -18.71347
      H1    17.09327    1.24442  -18.03377
       H    14.94947    6.96689  -16.32882
       O    14.81900    6.08968  -16.67241
      H1    14.63624    5.59532  -15.89049
       H    13.01909    0.23884  -18.12123
       O    12.24866    0.79562  -17.85314
      H1    12.29296    0.74697  -16.89384
       H    12.04434    8.31278  -18.29532
       O    12.97765    8.24315  -18.12816
      H1    13.01945    7.53459  -17.50899
       H    11.56097    0.77702  -14.97180
       O    10.84977    1.40455  -15.15697
      H1    10.96568    2.12513  -14.47843
       H    15.51596    0.06089  -15.45056
       O    14.86605   -0.06911  -16.17731
      H1    15.21992   -0.89312  -16.60609
       H    16.66461    8.29395  -12.13645
       O    16.93337    7.91962  -12.99772
      H1    16.60152    6.99644  -12.88736
       H    19.40600    2.07639  -15.42614
       O    18.92827    2.85509  -15.77920
      H1    18.00310    2.60434  -16.00576
       H    19.45314    4.32639  -14.49651
       O    19.16711    5.04304  -13.93383
      H1    18.71299    5.65780  -14.46777
       H    16.07669    0.28872  -12.95779
       O    16.42374    0.32010  -13.87120
      H1    17.25541    0.80481  -13.70687
       H    15.81147    2.99332  -14.49285
       O    15.27288    3.29968  -13.81107
      H1    14.72262    2.56134  -13.47540
       H    12.19580   10.74300  -17.18854
       O    13.02297   11.21012  -17.34639
      H1    13.09884   11.15507  -18.30693
       H    19.33864   -0.39970  -16.87422
       O    19.02337    0.00774  -16.00466
      H1    19.89631    0.06307  -15.56649

