90
frame 2 | Written by MDAnalysis XYZWriter (release 2.4.3)
       H    -9.47342  -19.41078   14.42893
       O   -10.03064  -19.28619   15.21776
      H1    -9.59260  -19.85402   15.84909
       H    -5.03408  -15.59941    9.42413
       O    -5.99481  -15.81689    9.44357
      H1    -6.26280  -15.57808    8.52774
       H   -13.91206  -18.08446    5.82357
       O   -13.99610  -17.78218    6.71415
      H1   -13.64519  -16.91603    6.70283
       H    -6.87425  -13.41598   10.71515
       O    -7.15857  -14.17120   11.22000
      H1    -6.74147  -14.90508   10.67178
       H   -12.17866  -15.77016    6.50428
       O   -12.85600  -15.35122    7.07437
      H1   -12.63807  -14.41230    6.98981
       H   -15.16212  -19.15273   15.37764
       O   -14.64219  -19.22478   16.16346
      H1   -13.82335  -19.50232   15.72594
       H   -12.46771  -11.78500   11.19625
       O   -11.89107  -12.46969   10.87184
      H1   -12.42460  -13.21714   10.88344
       H   -14.64413  -19.97702   13.15540
       O   -15.08223  -19.14933   13.49120
      H1   -14.82970  -18.47590   12.79228
       H   -16.31546  -14.22016    9.60523
       O   -15.54089  -14.66044    9.17158
      H1   -15.86129  -15.56850    9.42782
       H   -12.13068  -17.06748    4.60156
       O   -11.53872  -16.50699    5.18321
      H1   -10.87043  -17.18318    5.38540
       H   -10.47800  -15.31200    9.97830
       O   -10.75445  -16.00523    9.37015
      H1   -11.40185  -15.48039    8.82578
       H    -5.37110  -18.16784    8.09584
       O    -5.07349  -18.43501    7.24783
      H1    -5.75408  -19.11565    6.97973
       H    -7.57202  -14.22716    7.06307
       O    -7.19217  -15.13182    7.01681
      H1    -7.98363  -15.69638    7.21898
       H   -16.78025  -17.80095    9.75890
       O   -16.14140  -17.61426    9.06881
      H1   -15.39808  -18.25519    9.23297
       H   -10.93848  -17.87583   10.31802
       O   -11.20716  -18.62630   10.84570
      H1   -11.42785  -18.04397   11.67737
       H    -8.41096  -16.58770   14.75253
       O    -8.79255  -16.07072   15.46809
      H1    -8.73977  -15.12769   15.12724
       H   -14.93708  -17.35393   10.75114
       O   -14.75416  -17.18689   11.69490
      H1   -15.61992  -16.86208   11.94800
       H   -11.63898  -14.44407   13.74900
       O   -11.27464  -13.67682   14.20821
      H1   -12.15205  -13.28863   14.43864
       H   -13.29911  -15.55971   11.36258
       O   -13.43406  -14.69210   10.95720
      H1   -13.92208  -14.79774   10.11951
       H    -8.15900  -18.30226    8.25098
       O    -7.80256  -19.19668    8.40341
      H1    -7.13355  -19.13184    9.06914
       H   -11.29330  -16.40276   13.94097
       O   -11.61626  -16.28766   13.02385
      H1   -10.91633  -15.87562   12.61103
       H    -9.87754  -16.63993    8.17499
       O    -9.32120  -16.88437    7.42268
      H1    -9.80761  -17.61414    7.04392
       H   -10.38712  -16.74778   15.81053
       O   -11.36479  -16.82350   15.69484
      H1   -11.53463  -17.80257   15.54039
       H   -13.79306  -15.00888   13.61066
       O   -14.30375  -14.14486   13.47202
      H1   -14.36428  -14.05444   12.49272
       H    -9.65978  -13.26982   13.95878
       O    -8.68597  -13.17710   13.81901
      H1    -8.49608  -13.72416   13.02747
       H   -10.22141  -13.66740   10.71838
       O    -9.94151  -14.41565   11.28857
      H1    -8.96859  -14.46269   11.11356
       H    -7.07235  -17.88424   13.69285
       O    -6.67700  -17.04098   14.05362
      H1    -6.41338  -17.28800   14.94445
       H    -5.66881  -19.12425   10.18220
       O    -6.20173  -18.36519   10.29910
      H1    -5.61893  -17.60402    9.98372
       H    -9.63273  -19.62435    4.97480
       O   -10.25677  -18.98114    5.32593
      H1   -10.66064  -19.55224    6.01476
       H    -4.78876  -16.81549   12.75240
       O    -4.41447  -17.53528   12.18868
      H1    -5.18310  -17.96282   11.79267

