90
frame 3 | Written by MDAnalysis XYZWriter (release 2.4.3)
       H    12.93814  -10.84763   -9.29469
       O    13.51481  -11.04382   -8.52585
      H1    13.67142  -10.14567   -8.11698
       H     7.08419   -6.11856  -11.78225
       O     7.63953   -5.31709  -11.87351
      H1     7.45230   -4.98607  -12.77931
       H     8.12836  -11.35143   -6.59380
       O     7.18991  -11.65073   -6.53425
      H1     6.78668  -10.93628   -7.05380
       H    10.89605   -9.53721  -10.54087
       O    11.47950  -10.28723  -10.62421
      H1    11.13510  -10.85096  -11.35386
       H     8.45722   -5.18353   -6.83111
       O     8.48094   -4.57283   -7.55024
      H1     9.26432   -3.99759   -7.36330
       H     3.34426   -8.12785   -6.85903
       O     3.07111   -8.19137   -7.76890
      H1     3.65880   -8.94885   -8.04437
       H    10.03151   -9.13705  -14.19581
       O     9.24432   -8.86820  -14.69508
      H1     9.48922   -7.93689  -14.84507
       H    10.04637  -11.36763   -7.25291
       O     9.83401  -10.95406   -6.37481
      H1    10.04285   -9.97812   -6.42843
       H    11.03485   -6.65078  -15.50770
       O    10.07370   -6.51442  -15.45914
      H1     9.89439   -6.12591  -14.59799
       H    10.37884   -6.58315   -9.03564
       O     9.45388   -6.69005   -8.74050
      H1     9.21444   -5.80156   -8.44928
       H    10.37590   -4.01962  -10.54619
       O    10.88410   -4.79886  -10.27382
      H1    10.79015   -5.33401  -11.04410
       H     8.95391   -8.11630   -9.64127
       O     8.90981   -8.82476  -10.32504
      H1     8.24691   -8.57887  -10.95923
       H     6.33180   -8.36691  -13.12418
       O     7.20785   -8.76098  -12.78819
      H1     7.72203   -8.74819  -13.66230
       H     9.32786   -5.94047  -12.22097
       O    10.24123   -5.90326  -12.63023
      H1    10.58014   -6.81740  -12.62475
       H    10.17266   -7.81314   -7.29483
       O    10.84360   -8.43533   -6.99130
      H1    11.11221   -8.08896   -6.12574
       H     6.57929   -3.87743  -10.62712
       O     6.37029   -3.45137   -9.80919
      H1     5.98316   -4.23404   -9.30149
       H    11.08060  -13.16788   -8.41165
       O    10.13220  -12.95562   -8.52156
      H1     9.75925  -13.76359   -8.05898
       H     6.34241   -3.89549  -14.02835
       O     7.21898   -4.21526  -14.04806
      H1     7.76214   -3.45210  -13.79442
       H     6.69980  -10.90313  -14.15903
       O     6.82821  -11.89293  -14.09036
      H1     6.95619  -11.90184  -13.13165
       H    10.34029  -11.68700  -13.50750
       O    10.92008  -10.92239  -13.58902
      H1    11.04300  -10.82971  -14.55826
       H     5.23699   -6.74266  -10.11388
       O     5.87394   -7.46508  -10.33365
      H1     5.49486   -8.08447  -10.97328
       H     3.90472  -10.62264  -10.01073
       O     3.19826  -10.59421   -9.36554
      H1     3.52888  -11.11374   -8.64901
       H     6.92834  -13.28821  -10.50514
       O     6.55928  -14.18304  -10.38407
      H1     6.55451  -14.27445   -9.45254
       H     4.69665   -7.74799  -14.55262
       O     4.52461   -8.18175  -13.68690
      H1     3.76307   -8.75695  -13.89893
       H     7.50430   -9.19877   -9.16136
       O     6.79247   -9.34747   -8.48849
      H1     6.12312   -8.71583   -8.76248
       H    12.56457   -7.36290  -11.72651
       O    12.01886   -7.93811  -12.31886
      H1    12.29125   -8.80764  -11.93530
       H     7.55627   -8.15109   -7.22856
       O     7.50433   -7.37700   -6.62344
      H1     8.25424   -7.61333   -6.05827
       H    10.08768  -12.94380  -10.35212
       O    10.05448  -13.10295  -11.26560
      H1    10.45030  -13.99860  -11.32064
       H     8.42885  -12.04725  -11.01124
       O     7.50451  -11.74447  -11.09069
      H1     7.54841  -10.98070  -10.52586
       H     4.57452  -11.48884  -11.87830
       O     4.89150  -10.65877  -11.53218
      H1     5.86681  -10.78679  -11.64713

