90
frame 3 | Written by MDAnalysis XYZWriter (release 2.4.3)
       H    12.85066   -8.37607   -7.58188
       O    13.57876   -8.28394   -8.16337
      H1    14.32400   -7.84879   -7.65867
       H    17.29735   -5.64903   -4.63785
       O    17.14864   -5.97528   -3.78254
      H1    17.88567   -5.52866   -3.31231
       H    13.70847   -4.63419   -5.34513
       O    13.32351   -5.39292   -5.83590
      H1    13.03352   -6.01084   -5.14949
       H    12.11725   -5.60012   -1.16672
       O    12.35201   -4.59654   -1.11370
      H1    13.25301   -4.67856   -1.49684
       H    13.39502   -9.24960   -3.69541
       O    13.93108   -9.27969   -2.88393
      H1    13.39345   -9.87080   -2.34737
       H    15.80882    0.28866   -3.21190
       O    15.24103   -0.46912   -3.17212
      H1    14.50091    0.01772   -3.55606
       H    15.77502   -6.58175   -7.32058
       O    15.53930   -7.00151   -6.48038
      H1    14.79559   -6.33767   -6.25431
       H    18.75194   -3.98586   -5.97715
       O    17.97661   -4.47973   -6.30903
      H1    17.21916   -3.94659   -5.94311
       H    18.17645   -3.91654   -1.60551
       O    17.57933   -3.11848   -1.44650
      H1    17.71905   -2.67786   -2.33968
       H    16.66043   -9.51458    0.45279
       O    16.64255   -8.54016    0.52930
      H1    17.23212   -8.29919   -0.20220
       H    12.90995   -1.66512   -1.89013
       O    13.56141   -1.43556   -1.25172
      H1    14.27411   -1.10029   -1.82941
       H    20.15437  -10.17167   -5.70083
       O    19.48697   -9.54409   -5.38816
      H1    18.67147  -10.07045   -5.46328
       H    16.58716   -3.18180    1.15326
       O    17.39156   -3.57987    1.63646
      H1    18.06405   -3.87802    0.95530
       H    18.12272   -0.00502   -6.59242
       O    18.17902   -0.96094   -6.37752
      H1    17.31347   -1.24976   -6.71770
       H    15.42410   -5.75250   -9.69110
       O    15.74536   -5.21528   -8.99315
      H1    16.71705   -5.23922   -9.09965
       H    18.30932   -3.93294   -8.26892
       O    18.17524   -4.11150   -9.20476
      H1    18.90537   -3.62675   -9.67688
       H    16.78439  -10.01122   -6.77932
       O    16.60853   -9.89267   -5.85825
      H1    16.26139   -8.97919   -5.85620
       H    18.79268   -7.24486   -8.99432
       O    18.40369   -7.44104   -9.91839
      H1    18.79785   -6.90653  -10.57301
       H    14.77068   -2.60534   -7.74972
       O    15.79578   -2.51315   -7.84391
      H1    15.84547   -3.38843   -8.30640
       H    10.95904   -6.73587   -3.86334
       O    11.76165   -7.15696   -4.19203
      H1    12.19120   -7.42573   -3.32019
       H    12.75598   -1.46679   -4.51750
       O    12.30028   -2.33927   -4.54805
      H1    12.05437   -2.36103   -5.48192
       H    17.43857  -10.31730   -9.06587
       O    16.94118   -9.59968   -9.55048
      H1    17.61462   -8.87174   -9.54257
       H    12.94758   -4.40303   -7.52566
       O    12.83259   -3.44879   -7.70731
      H1    12.92708   -3.34895   -8.67966
       H    18.40693   -6.68336   -7.14127
       O    19.01071   -7.43290   -7.39840
      H1    19.02303   -7.95432   -6.56940
       H    15.72285   -5.70099   -2.30109
       O    15.12870   -5.10577   -1.85832
      H1    15.62679   -4.35757   -1.58175
       H    18.25463   -8.90932   -1.98443
       O    18.39271   -8.21153   -1.37030
      H1    18.46941   -7.47289   -1.99051
       H    15.83326  -11.10340   -4.35732
       O    16.15226  -11.33533   -3.43824
      H1    15.68069  -10.67627   -2.90955
       H    17.42607   -1.25526   -3.52309
       O    18.25462   -1.67403   -3.63973
      H1    18.51696   -1.25646   -4.45447
       H    19.09226  -10.28894   -3.67840
       O    18.63971  -10.64700   -2.83832
      H1    17.82019  -11.06886   -3.21300
       H    19.29926   -1.40680   -9.22555
       O    19.78399   -1.77280   -8.42336
      H1    19.25438   -1.56405   -7.61827

