90
frame 2 | Written by MDAnalysis XYZWriter (release 2.4.3)
       H     6.20631    3.80939   17.22696
       O     6.20291    4.76453   17.38583
      H1     6.33155    4.87098   18.29958
       H     5.37823   11.69505   15.25033
       O     6.19902   11.27548   14.95368
      H1     6.91828   11.93966   15.14700
       H     4.81439    8.78905   14.43295
       O     4.28581    8.20918   14.98328
      H1     4.39990    7.29992   14.59130
       H     9.88703   11.54616   12.01687
       O     9.49676   10.68609   12.12288
      H1    10.16606   10.04584   11.81336
       H     7.73631   10.37930   18.58553
       O     7.46453   11.30053   18.86061
      H1     7.12646   11.13982   19.76691
       H     2.88450    9.85646   12.42218
       O     3.01993   10.77843   12.62049
      H1     2.70311   10.73085   13.53171
       H     4.39474   11.67440   17.49298
       O     4.71986   11.44987   18.34746
      H1     5.71229   11.57443   18.28287
       H     4.05553    8.32028    9.45328
       O     3.92833    8.61940   10.36993
      H1     4.01862    7.88956   10.97266
       H    10.45888    7.68304   13.96562
       O     9.76642    7.12000   13.61990
      H1    10.28026    6.85480   12.81011
       H     3.78227    5.92487   11.74122
       O     4.08735    6.68747   12.23684
      H1     3.33950    6.89291   12.78936
       H     4.95362    4.81012   15.21633
       O     4.08762    4.86861   15.75981
      H1     4.45165    5.05795   16.66555
       H     9.24365   11.69387   14.14918
       O     9.00668   12.29298   14.89123
      H1     9.17106   13.21137   14.59448
       H     6.84452    7.99356   12.92795
       O     7.26801    7.22428   12.56403
      H1     7.93096    7.08272   13.23575
       H    13.11191    8.63692   13.65453
       O    12.56920    7.95560   13.23832
      H1    12.51800    8.39047   12.36626
       H     7.06126    9.68613    9.65713
       O     6.41644   10.35934    9.72178
      H1     5.58931    9.75809    9.89230
       H     9.96836   11.65814   15.97600
       O    10.43886   11.23867   16.78567
      H1     9.93800   10.36266   16.82504
       H     2.04566    8.17536   17.50280
       O     2.18105    8.85102   16.76063
      H1     3.00804    8.53036   16.37407
       H    13.29209   11.43922   15.92652
       O    12.81556   10.61752   15.69565
      H1    11.85488   10.75786   15.97996
       H     8.36380    8.55772   14.13771
       O     8.00794    8.88415   15.00200
      H1     7.65223    9.77628   14.81211
       H    11.34613    5.14188   14.99462
       O    10.79664    4.85968   15.66345
      H1     9.90235    5.11467   15.41706
       H     8.11077   11.46710   11.50861
       O     7.53979   12.18150   11.07564
      H1     6.86818   11.64102   10.60770
       H     2.57113   11.46276   15.99662
       O     3.32736   11.93543   15.67349
      H1     3.29770   12.78250   16.12630
       H    10.35368    5.97325   10.87156
       O    10.48501    6.92332   10.81332
      H1     9.66682    7.31318   10.43045
       H     7.71034    7.47930    9.77870
       O     8.17710    8.22580   10.20717
      H1     8.03915    8.02356   11.15456
       H     7.00481    4.61721   13.98083
       O     6.16830    5.03074   13.61500
      H1     6.53402    5.74327   13.05422
       H     5.10111   10.13730   12.34909
       O     5.98106    9.85650   12.68626
      H1     6.11431   10.58668   13.27671
       H     9.13811   11.75863   19.48772
       O    10.00117   12.12891   19.70891
      H1    10.60295   11.92139   18.98718
       H     7.52294    7.32865   16.72477
       O     8.11012    6.56554   16.73204
      H1     7.45820    5.86244   16.94948
       H     8.31458   14.63726   16.89499
       O     8.51686   14.22207   17.80386
      H1     8.47895   13.27335   17.63862
       H    11.30169    8.45046   17.57164
       O    10.35532    8.51951   17.90828
      H1     9.89277    7.80503   17.42009

