90
frame 3 | Written by MDAnalysis XYZWriter (release 2.4.3)
       H   -16.52274   -0.41962   11.97086
       O   -17.33767   -0.81446   12.38605
      H1   -17.47906   -0.23914   13.18156
       H   -12.20300   -1.33569   16.04719
       O   -12.87941   -0.76990   16.49659
      H1   -12.52964    0.10339   16.12081
       H   -17.78374    3.27589   16.31439
       O   -17.22168    2.46776   16.32331
      H1   -16.31932    2.79884   16.28690
       H   -10.68769    3.97361   14.03380
       O   -10.84242    4.51898   13.25404
      H1   -11.30414    5.25048   13.72213
       H    -9.98293    4.90443   18.03446
       O   -10.90585    4.69439   17.84022
      H1   -11.10699    4.05799   18.62335
       H   -10.09453    2.02757   15.73483
       O   -10.18581    2.96908   15.64392
      H1    -9.97598    3.27091   16.56180
       H   -11.70220   -3.79850   15.13460
       O   -11.63122   -3.31208   15.93894
      H1   -12.24967   -3.91282   16.40697
       H   -14.12741    3.51851   14.89061
       O   -14.76506    3.92034   15.45580
      H1   -14.16953    4.20499   16.12502
       H   -10.05679   -1.90638   18.64776
       O   -10.59735   -2.25218   19.39670
      H1   -11.45376   -2.36946   18.94790
       H   -15.29927    2.16794   18.88119
       O   -14.61223    1.52331   18.76187
      H1   -14.83011    0.85967   19.52670
       H   -11.50080    0.03102   12.59751
       O   -11.32833   -0.81867   13.08547
      H1   -10.42376   -1.05552   12.76434
       H   -18.64958    1.76856   13.94524
       O   -18.00459    1.13440   14.22080
      H1   -17.61984    1.53824   15.02107
       H   -13.75898   -1.49901   18.38626
       O   -13.51025   -2.16984   18.99286
      H1   -13.36007   -1.60967   19.80828
       H    -9.46244   -3.06679   14.37038
       O    -8.98335   -2.50138   15.00334
      H1    -9.73120   -2.10397   15.47222
       H   -17.88636    0.92527   17.51350
       O   -18.54730    0.43301   17.98344
      H1   -18.84025   -0.28612   17.43216
       H   -14.54460   -0.34006   14.01173
       O   -14.99169   -0.60358   14.78463
      H1   -14.22196   -0.66523   15.44515
       H   -14.38647   -5.26901   17.70434
       O   -13.49703   -5.07488   17.38354
      H1   -13.06460   -5.91156   17.65470
       H    -9.04765   -0.00778   15.54428
       O    -9.97258   -0.03066   15.78375
      H1   -10.41302   -0.27060   14.94025
       H   -14.87951   -3.36124   12.16656
       O   -14.39974   -2.82209   11.50736
      H1   -13.43823   -3.09325   11.58358
       H   -13.59750   -5.76775   14.23228
       O   -13.98344   -4.87506   14.40005
      H1   -13.88571   -4.73950   15.37420
       H    -8.81354    0.33186   17.91530
       O    -8.89513    0.27442   18.86902
      H1    -8.17496   -0.35528   19.21707
       H   -16.64871   -2.13635   13.31715
       O   -16.37536   -2.99214   13.78027
      H1   -15.58410   -2.75055   14.19813
       H    -8.49562   -1.32820   13.49168
       O    -8.70189   -1.14254   12.56263
      H1    -7.97888   -0.50529   12.36670
       H   -16.80543   -1.93788   17.40695
       O   -16.10443   -1.34242   17.20452
      H1   -15.96641   -1.39959   16.27274
       H   -14.53632    1.73896   12.18996
       O   -14.42926    2.67560   12.21874
      H1   -15.10933    2.93080   11.60329
       H   -12.42449    1.90851   11.40435
       O   -11.55345    1.84426   11.87752
      H1   -11.67699    2.69231   12.37623
       H   -13.13048   -0.64578   12.84446
       O   -13.90466   -0.34157   12.31193
      H1   -14.18605   -1.15840   11.85651
       H    -9.09655   -3.65530   12.54278
       O    -9.84109   -4.16843   12.92349
      H1    -9.40239   -5.00526   13.11007
       H   -10.63364   -4.09451   18.91524
       O   -10.65516   -4.96890   18.56174
      H1   -10.09802   -4.85099   17.80424
       H   -13.27078    2.04642   16.55396
       O   -12.83927    1.89311   15.69894
      H1   -12.01700    2.42428   15.84857

