90
frame 3 | Written by MDAnalysis XYZWriter (release 2.4.3)
       H   -13.25858    1.06491   -9.83493
       O   -12.65025    1.83284   -9.60932
      H1   -12.79773    2.48112  -10.34023
       H   -16.04268    6.05313   -4.34266
       O   -16.67228    5.99561   -3.59301
      H1   -16.13710    5.65778   -2.83807
       H   -12.77106    5.07489   -8.55210
       O   -13.40653    5.29355   -7.84229
      H1   -13.78146    4.37663   -7.76916
       H   -17.06827    1.15390   -7.64700
       O   -17.97794    0.86206   -7.78492
      H1   -18.02410   -0.09223   -7.62585
       H   -13.63038    1.13016   -6.76747
       O   -13.23218    1.94753   -7.00606
      H1   -12.99249    1.92793   -7.94415
       H   -16.70567    3.04345  -12.37826
       O   -16.67440    2.10134  -12.27453
      H1   -17.26795    2.03907  -11.49979
       H   -13.33549   -3.29836   -8.99262
       O   -12.71694   -2.54114   -8.91120
      H1   -12.68766   -2.37440   -7.92665
       H   -15.49938   -5.05886   -8.33200
       O   -16.30971   -4.87147   -7.83307
      H1   -16.11393   -3.97506   -7.49661
       H   -18.68434    2.93895   -9.88722
       O   -18.66793    2.03057  -10.29815
      H1   -18.20010    1.61076   -9.51165
       H   -16.84723   -0.98856  -11.83482
       O   -16.87976   -1.35123  -12.72847
      H1   -16.40852   -0.69107  -13.27977
       H   -16.22408    7.47183   -8.98334
       O   -17.00679    7.28526   -8.49004
      H1   -17.66890    7.53553   -9.13902
       H   -15.76180   -0.07291   -5.30446
       O   -15.18251   -0.28934   -6.08253
      H1   -14.40436   -0.76202   -5.63984
       H   -18.23041   -3.12568   -5.99054
       O   -18.95102   -3.18450   -5.30463
      H1   -18.55217   -3.76631   -4.65680
       H   -19.18003    4.92173   -6.58466
       O   -19.60793    5.63018   -6.08415
      H1   -19.43390    5.41262   -5.16469
       H   -15.53816   -1.48638  -10.05242
       O   -16.50225   -1.72055   -9.97706
      H1   -16.64860   -2.58487  -10.43811
       H   -17.25138    3.78443   -7.53060
       O   -18.05362    4.35052   -7.75743
      H1   -17.63270    5.10655   -8.25201
       H   -18.48570   -2.92036  -11.72414
       O   -18.49106   -3.49556  -10.96130
      H1   -18.17927   -4.33156  -11.26500
       H   -17.10000   -2.14679   -7.97200
       O   -16.80210   -2.26947   -7.05545
      H1   -16.17280   -1.50927   -7.01130
       H   -19.35409    6.73510  -10.45230
       O   -19.10848    7.63319  -10.47053
      H1   -19.81664    8.07687   -9.97392
       H   -14.12803   -0.70038  -10.84929
       O   -14.07210   -0.59029   -9.88011
      H1   -13.38172   -1.21230   -9.52699
       H   -17.42498    1.24180  -15.05940
       O   -18.12453    1.03796  -14.39679
      H1   -17.63288    1.18177  -13.58279
       H   -14.88187    2.14800   -6.93510
       O   -15.77926    2.56897   -6.91815
      H1   -15.66708    2.86299   -5.98465
       H   -17.56470   -1.98605   -0.84383
       O   -17.16158   -1.54701   -1.63559
      H1   -16.39776   -2.13001   -1.81704
       H   -12.46029   -3.07731   -6.08423
       O   -12.62466   -2.11507   -6.26545
      H1   -11.72965   -1.72016   -6.20140
       H   -10.11071    2.62767   -6.34188
       O   -10.46187    1.99833   -7.02601
      H1   -11.40095    2.04617   -6.80974
       H   -15.07233    2.70624   -3.52388
       O   -15.40594    3.31929   -4.24129
      H1   -16.31888    3.46833   -4.00860
       H   -18.44276   -1.51118   -4.67164
       O   -18.03379   -0.72666   -4.23015
      H1   -17.64712   -1.05702   -3.38090
       H   -14.17491   -0.05241  -13.77255
       O   -15.01052    0.35945  -14.04176
      H1   -14.97781    1.20438  -13.49984
       H   -18.76282   -0.14743   -1.26988
       O   -18.76294    0.77163   -0.93960
      H1   -19.69074    1.02914   -0.84710
       H   -19.57561    4.00832   -3.11462
       O   -18.95181    4.04670   -3.86686
      H1   -18.39154    4.91641   -3.76459

