90
frame 3 | Written by MDAnalysis XYZWriter (release 2.4.3)
       H     6.22426    4.59219   17.47932
       O     5.89776    5.51725   17.35376
      H1     5.57603    5.71572   18.22209
       H     6.05316    3.65204   12.05613
       O     5.92087    3.34670   11.16312
      H1     5.28468    2.62551   11.33513
       H     7.30035    1.56313   13.55678
       O     8.26413    1.52476   13.51115
      H1     8.39870    1.96285   12.66272
       H     7.79359    2.88695   10.91269
       O     8.74422    2.76056   11.14188
      H1     8.94542    2.02873   10.56917
       H     9.60620   -2.33387   13.49065
       O    10.32984   -2.45306   12.84740
      H1    10.93475   -1.85652   13.28119
       H     2.64733   -0.26055   14.78946
       O     3.38913    0.39641   14.69405
      H1     2.95103    1.23751   15.05862
       H     6.64461    2.00991   18.63977
       O     6.48312    1.47980   19.46869
      H1     7.11631    1.89267   20.10650
       H     5.73548    4.53809    9.87797
       O     5.32649    5.23132    9.30400
      H1     4.99948    4.62620    8.67760
       H     9.02743   -2.87551   15.97514
       O     8.33494   -3.48914   16.28286
      H1     8.88295   -4.31392   16.61685
       H     4.49664    0.03364   10.51925
       O     4.95011   -0.78542   10.24592
      H1     5.53285   -0.88194   11.05101
       H     4.55386    5.55824   12.29328
       O     4.16516    6.39144   12.59978
      H1     3.30584    6.17918   12.18648
       H     5.04522   -0.22057   12.56081
       O     5.83868   -0.75753   12.70984
      H1     5.61116   -1.50790   13.31055
       H     4.66870    4.82889   14.64455
       O     4.04416    4.91573   15.42573
      H1     4.73363    5.17166   16.04930
       H     4.12648    0.74500   18.01376
       O     3.60573    0.04087   18.40412
      H1     4.18990   -0.33992   19.10463
       H     6.94134    7.53553   12.99436
       O     7.32930    6.94015   12.37734
      H1     8.26881    6.96832   12.57929
       H    10.01378    4.09099   11.35829
       O    10.84805    4.52239   11.57419
      H1    11.32613    4.27003   10.75076
       H    11.84830   -0.60663   15.13650
       O    11.77777   -0.58155   14.17383
      H1    10.91783   -0.15357   14.08639
       H     7.27052    2.48388   16.55654
       O     7.24826    3.11792   17.28244
      H1     8.13054    3.08059   17.61092
       H     3.24749    2.73433   17.31996
       O     3.84750    2.22358   16.72339
      H1     4.01509    2.97984   16.13791
       H    10.22199    0.87243    9.57618
       O     9.35506    0.85339    9.11712
      H1     8.98833   -0.02553    9.06519
       H     3.34030    0.73479   13.00020
       O     3.52275    1.09307   12.11058
      H1     2.82490    0.54480   11.64905
       H    11.39093    5.32312   15.21007
       O    10.75691    4.66610   15.50731
      H1     9.94848    5.14744   15.66834
       H     5.55491    0.64135   15.93627
       O     6.48128    0.89010   15.74069
      H1     6.90089    0.06324   15.95918
       H     7.01157   -3.56200   14.56825
       O     6.24922   -3.36043   14.03471
      H1     6.47784   -3.79433   13.19573
       H     7.23680    4.69662   14.09061
       O     6.39892    4.70575   13.60789
      H1     6.47607    5.61044   13.20909
       H     2.17941    2.41118   12.87629
       O     1.26516    2.76347   12.88004
      H1     1.27623    3.22365   13.76010
       H     9.56107    0.42075   18.22449
       O     9.44653   -0.20265   17.50227
      H1     9.76027   -0.98651   18.03441
       H     3.46562   -2.65235   15.81211
       O     3.74396   -3.50628   15.42343
      H1     4.50775   -3.22937   14.91009
       H     9.00569   -0.56006   15.71123
       O     8.66107   -1.10335   15.00285
      H1     8.35062   -0.41592   14.38571
       H     8.33292    6.85154   15.50558
       O     8.16710    5.96744   15.80681
      H1     7.55378    5.99923   16.54296

