90
frame 3 | Written by MDAnalysis XYZWriter (release 2.4.3)
       H    -0.96369   14.73283   -2.05693
       O    -1.55005   14.49270   -1.32840
      H1    -1.60671   15.34944   -0.90045
       H    -4.73276   10.24321   -5.34641
       O    -4.71989    9.26184   -5.42173
      H1    -5.32623    9.10583   -6.15049
       H    -0.98325   12.14504   -1.16332
       O    -0.23754   11.57326   -1.43441
      H1    -0.26818   11.55906   -2.36567
       H     0.45623    8.37382   -7.98914
       O     0.13360    8.13193   -7.08672
      H1     0.04698    8.98691   -6.67926
       H    -1.15594    5.91658   -2.20934
       O    -0.31496    6.23584   -2.65832
      H1     0.25536    5.76694   -2.04118
       H     1.03697   10.84444    1.39846
       O     1.49859   10.34842    2.13882
      H1     1.18671    9.43755    2.07555
       H     3.87602   12.47023   -2.44363
       O     3.45869   13.21716   -2.88310
      H1     2.86317   12.69764   -3.47991
       H    -3.05690   13.95802   -0.98053
       O    -3.91749   13.58134   -0.65983
      H1    -3.72167   12.90914    0.06394
       H     5.14824   11.57943    0.24130
       O     4.95466   11.81511   -0.70070
      H1     5.80611   12.23901   -1.01236
       H    -6.09510   14.95421   -2.47346
       O    -5.45499   14.43547   -2.95555
      H1    -5.08432   13.88470   -2.25291
       H    -0.45964    9.15703   -0.79806
       O    -1.25124    8.55440   -0.74147
      H1    -1.17866    8.05392   -1.55132
       H     2.24587   13.52478   -1.72246
       O     1.58222   13.94304   -1.15822
      H1     1.22473   13.26437   -0.56921
       H     0.51276   13.92103   -2.57750
       O     0.15317   14.12339   -3.47418
      H1    -0.51022   13.37585   -3.60093
       H     0.02655   12.58086   -8.21471
       O    -0.45430   12.63759   -7.35044
      H1    -0.54481   13.66337   -7.43563
       H     2.58317   14.55045   -4.91311
       O     2.04919   13.75826   -5.24089
      H1     1.36130   13.83298   -4.53192
       H    -2.37013   13.12140   -4.45940
       O    -1.89380   12.53423   -3.85620
      H1    -2.59348   12.14818   -3.37187
       H    -3.09271   14.40324   -6.81064
       O    -2.97996   14.36437   -5.83920
      H1    -3.59048   15.06582   -5.59123
       H    -0.78256    8.20334    0.91069
       O    -0.25962    8.03505    1.71250
      H1    -0.62794    7.19503    2.06320
       H    -3.13160    9.63218   -2.65974
       O    -3.01942   10.52694   -2.37301
      H1    -2.34856   10.40180   -1.70205
       H    -5.72030   11.34557   -1.08676
       O    -5.65452   11.23245   -2.03135
      H1    -4.65979   10.98863   -2.08578
       H    -5.46757   11.86293   -3.93561
       O    -5.21293   11.89137   -4.86272
      H1    -4.42327   12.44464   -4.80738
       H     3.75370    8.28734   -0.97954
       O     3.02513    7.65645   -0.82605
      H1     3.64964    6.86272   -1.02966
       H    -2.41933   12.35357    1.85699
       O    -2.05136   12.46223    0.95015
      H1    -1.61829   13.33222    0.95641
       H     1.26777   16.04530   -3.54043
       O     1.97090   16.62779   -3.21483
      H1     1.82613   17.42823   -3.77322
       H     0.82361    7.53819   -2.74359
       O     1.31867    8.34978   -2.79959
      H1     2.09321    8.14287   -2.21329
       H     0.66175   14.91787    1.83656
       O     0.61789   13.91292    1.90450
      H1     1.55968   13.71676    1.91764
       H     0.86477   11.14979   -4.30553
       O     1.54612   11.22937   -3.61516
      H1     1.82972   10.27596   -3.52307
       H     2.40171   12.22142   -5.68622
       O     2.75531   11.58649   -6.35370
      H1     2.41837   10.81027   -5.98633
       H     2.78511    8.36277   -6.75183
       O     2.72259    8.83731   -5.89856
      H1     2.06547    8.23088   -5.48230
       H    -0.45362   11.33001   -6.10423
       O    -0.29674   10.53136   -5.52826
      H1    -1.05375   10.51383   -4.95466

