90
frame 3 | Written by MDAnalysis XYZWriter (release 2.4.3)
       H    -3.01285   -4.19519   -0.62247
       O    -3.08940   -4.88472    0.07650
      H1    -3.90130   -4.62908    0.51489
       H    -0.47494   -1.06102   -0.19520
       O    -1.18056   -1.53872    0.36963
      H1    -1.87455   -0.87018    0.34090
       H    -3.47021   -6.05969    4.49058
       O    -4.37366   -6.41257    4.28787
      H1    -4.75053   -6.29012    5.18794
       H    -3.02764   -7.92379   -3.71367
       O    -2.62019   -7.10734   -3.47034
      H1    -3.41687   -6.55286   -3.44938
       H    -6.04649  -11.96333    1.04274
       O    -5.60086  -11.75769    0.20546
      H1    -4.86682  -11.23140    0.60512
       H     0.89267   -5.28266   -1.44104
       O     0.07872   -5.42864   -2.04147
      H1    -0.25177   -4.52269   -2.13085
       H    -6.35403   -6.34037   -3.06398
       O    -5.98176   -6.52069   -2.13676
      H1    -5.30001   -5.84283   -2.02891
       H    -0.95423   -9.61390    5.55396
       O    -1.58560   -9.52076    4.84843
      H1    -1.33586   -8.60743    4.54063
       H    -0.95195   -6.50550    2.93472
       O    -1.36939   -6.54846    3.85887
      H1    -0.60557   -6.39499    4.39061
       H    -7.28621   -6.59014   -0.72994
       O    -8.17325   -6.77243   -0.34335
      H1    -8.18615   -6.00798    0.29436
       H    -5.06525   -3.37752    2.34840
       O    -5.16379   -4.32149    2.02683
      H1    -4.64397   -4.77061    2.73013
       H    -2.41141   -7.12533   -1.67461
       O    -2.61147   -7.43506   -0.81107
      H1    -2.71922   -6.60264   -0.40081
       H     1.24419   -7.75850   -3.00839
       O     2.05391   -7.49503   -3.40851
      H1     2.69381   -8.13996   -3.13285
       H    -0.08634   -6.07487   -3.95853
       O    -0.38510   -6.40497   -4.82351
      H1    -1.04841   -7.06813   -4.56679
       H    -6.88295   -4.70158    1.68235
       O    -7.79954   -4.64222    1.30843
      H1    -8.35439   -4.80041    2.03702
       H    -2.46156   -4.34111    2.00331
       O    -2.39195   -4.02640    2.92724
      H1    -1.90846   -4.78387    3.35141
       H    -5.09537   -2.10571   -2.40826
       O    -5.80895   -2.83325   -2.23762
      H1    -5.49011   -3.43066   -2.91964
       H    -7.52282   -8.36769    0.11015
       O    -7.59777   -9.34007    0.11793
      H1    -6.68902   -9.57028    0.21138
       H    -2.55803   -3.80507   -5.73615
       O    -2.04401   -4.50387   -6.13538
      H1    -1.49316   -4.82545   -5.39180
       H    -3.10657   -6.56190   -6.71213
       O    -3.59844   -7.10999   -6.08113
      H1    -3.10757   -6.86532   -5.23882
       H    -3.27381   -4.24704   -2.74258
       O    -3.96681   -4.65218   -3.27533
      H1    -3.93700   -4.08214   -4.05460
       H     1.69767   -3.84797    0.12584
       O     0.76832   -4.14128    0.14179
      H1     0.51413   -3.65437    0.95061
       H    -0.87830  -11.10421    0.47701
       O    -0.40502  -10.28631    0.62779
      H1    -0.21693  -10.39772    1.58503
       H     2.10566   -7.11774   -0.92681
       O     2.84535   -6.55521   -0.78106
      H1     3.27288   -6.48689   -1.63289
       H     1.04764   -9.19148    3.41014
       O     1.17831   -8.34083    3.82602
      H1     1.07907   -7.74956    3.04310
       H    -3.86210   -9.79922   -3.28815
       O    -3.99247   -9.48526   -4.18809
      H1    -4.07752  -10.34311   -4.62270
       H    -5.26974   -8.63237   -1.27361
       O    -4.79334   -9.04461   -0.54942
      H1    -4.09807   -8.39225   -0.55991
       H    -0.00560   -7.26840    0.90117
       O     0.13483   -6.61323    1.61007
      H1     0.45270   -5.85077    1.11684
       H     0.26841   -9.01349   -0.33647
       O     0.32133   -8.12152   -0.84679
      H1    -0.59265   -7.80496   -0.88378
       H    -1.37166   -2.86710   -2.41567
       O    -2.04926   -3.14515   -1.76748
      H1    -1.73811   -2.59919   -0.97043

