90
frame 2 | Written by MDAnalysis XYZWriter (release 2.4.3)
       H   -13.18291    0.35793  -10.81007
       O   -12.89189    1.23665  -10.46113
      H1   -13.12770    1.98520  -11.05661
       H   -16.29788    6.55210   -4.51291
       O   -16.82647    6.28702   -3.74429
      H1   -16.04181    6.05125   -3.17670
       H   -11.50953    8.86940  -10.67308
       O   -11.12457    8.02443  -10.40795
      H1   -10.36258    8.21110   -9.85720
       H   -12.30570    4.38453  -11.28707
       O   -12.75223    3.67020  -11.83690
      H1   -13.61875    4.05255  -12.12180
       H   -13.15051    4.92702   -8.02586
       O   -13.86434    4.93473   -7.35443
      H1   -14.55558    5.25812   -7.96077
       H   -17.57858    2.11748   -7.48525
       O   -18.29011    1.74945   -8.02333
      H1   -18.05515    0.82088   -8.14009
       H   -14.28266    0.46057   -7.59885
       O   -13.75683    1.23916   -7.77379
      H1   -13.49775    1.18315   -8.70680
       H   -17.01303    3.06971  -12.98867
       O   -16.45800    2.29669  -12.83016
      H1   -16.56768    2.19230  -11.90573
       H   -13.67225    6.42050   -4.18631
       O   -13.29500    5.58702   -4.49345
      H1   -13.65721    5.67066   -5.33791
       H   -14.32944    5.67885  -13.29855
       O   -15.06263    4.97238  -13.38664
      H1   -14.77390    4.48521  -14.16974
       H   -18.27360    3.35082  -10.52982
       O   -17.62265    2.64477  -10.40713
      H1   -17.70372    2.38215   -9.48114
       H   -15.71832    7.30610   -8.94726
       O   -16.38158    6.69420   -8.61682
      H1   -17.11514    6.95388   -9.14225
       H   -11.73509    9.56371   -6.21092
       O   -11.48227    8.91242   -5.54537
      H1   -10.78862    9.45534   -5.16645
       H   -16.87422    4.08043   -7.03020
       O   -17.79487    4.44924   -7.19247
      H1   -17.57114    4.91572   -8.05811
       H   -16.53432    7.71945   -6.73699
       O   -16.60594    8.21778   -5.89857
      H1   -17.59629    8.07177   -5.77859
       H   -18.51415    6.62894  -11.04177
       O   -18.45969    7.22251  -10.31186
      H1   -19.35722    7.14691   -9.88789
       H   -12.58358    3.97079   -4.33341
       O   -12.06398    3.15627   -4.08688
      H1   -11.25983    3.38366   -4.52701
       H   -13.77524    7.44196  -12.96001
       O   -13.16905    6.69112  -12.94016
      H1   -12.38844    7.03603  -13.40417
       H   -15.19924    2.42217   -6.68975
       O   -16.03785    2.66355   -6.36669
      H1   -15.96179    2.73243   -5.39774
       H   -10.61963    7.04093   -4.83103
       O    -9.86519    6.45253   -4.87032
      H1    -9.72781    6.16059   -3.94866
       H   -10.45751    2.95995   -8.96000
       O    -9.79137    3.49187   -9.45940
      H1    -9.81133    2.93636  -10.27297
       H   -11.02860    5.03951   -9.47562
       O   -11.95499    5.33732   -9.60332
      H1   -11.76755    6.23662   -9.87904
       H   -10.83530    2.95887   -6.85264
       O   -11.20476    2.27899   -7.45163
      H1   -12.14938    2.49539   -7.30402
       H   -15.78001    2.05579   -2.92297
       O   -15.91186    2.83197   -3.40650
      H1   -16.87880    2.81889   -3.64173
       H   -13.37675    8.90683   -4.66232
       O   -14.20528    8.36417   -4.46631
      H1   -14.75679    8.44839   -5.23456
       H   -12.58448   11.36436   -7.53189
       O   -12.15082   10.46449   -7.57510
      H1   -12.84164    9.96648   -8.07860
       H   -14.32134    4.76107   -1.54566
       O   -15.23892    5.04164   -1.78202
      H1   -15.50719    4.39094   -2.50605
       H   -15.31837    9.11900  -10.22804
       O   -14.48553    9.07051   -9.67680
      H1   -13.93680    9.57522  -10.26417
       H   -19.23344    3.86242   -3.17198
       O   -18.77997    4.01653   -3.95860
      H1   -18.28104    4.90136   -3.74856
       H    -8.98031    3.54138   -5.51070
       O    -9.86798    3.90547   -5.78547
      H1    -9.77864    4.88577   -5.73362

