90
frame 3 | Written by MDAnalysis XYZWriter (release 2.4.3)
       H     7.88790    1.37242   -3.23024
       O     7.12937    1.96386   -3.07407
      H1     6.45893    1.36712   -3.48208
       H     6.60218    3.69128   -5.52527
       O     6.99184    4.04886   -4.69477
      H1     7.04127    3.20643   -4.18861
       H     4.73364    8.43084   -3.43726
       O     4.47421    7.72798   -4.07163
      H1     3.80459    8.17914   -4.67037
       H    -1.63414    3.83927   -3.94937
       O    -0.76997    3.97998   -4.33309
      H1    -0.50241    4.81975   -3.89220
       H     5.96616    1.27033    2.47751
       O     6.92689    1.18339    2.55196
      H1     7.04146    0.73946    3.37975
       H    -1.15594    5.91658   -2.20934
       O    -0.31496    6.23584   -2.65832
      H1     0.25536    5.76694   -2.04118
       H     6.01844    5.28419    1.18355
       O     6.18974    5.40310    2.14818
      H1     5.48343    4.90804    2.62149
       H     6.29411    1.05376   -0.60207
       O     5.85600    1.87997   -0.75826
      H1     6.34269    2.08759   -1.63075
       H     4.92527    5.98567   -2.72593
       O     4.66505    5.77071   -1.81821
      H1     5.48157    5.99744   -1.38809
       H    10.13641    1.12498    0.10427
       O     9.29170    1.26292   -0.33588
      H1     9.00628    2.13603   -0.04964
       H     6.83230    7.81398    0.20646
       O     6.77915    7.01284   -0.35981
      H1     7.66637    6.67851   -0.24822
       H     5.15477   -0.80223   -3.76663
       O     5.14763    0.15946   -3.96638
      H1     4.13996    0.27582   -4.12150
       H     3.26170    3.24274    2.86432
       O     4.17747    3.01100    3.02465
      H1     4.25168    3.37769    3.90816
       H     7.47337    3.60028    0.99510
       O     8.01741    3.75208    0.17675
      H1     7.26900    3.56847   -0.45070
       H     1.62120    2.58687    3.62529
       O     1.30461    3.35725    3.08391
      H1     1.41507    2.96512    2.18042
       H     2.25488    6.81457    0.89737
       O     2.33245    6.05811    1.50448
      H1     1.84709    6.32574    2.27013
       H     5.74518    1.65883   -6.65747
       O     5.73901    2.65236   -6.73096
      H1     4.78428    2.82747   -6.66813
       H     1.81126    4.22328   -1.16602
       O     1.20864    4.97593   -1.03685
      H1     1.33859    5.13391   -0.08810
       H     2.39625    2.46187    0.12260
       O     1.82855    1.87127    0.61953
      H1     1.37781    1.33869   -0.10815
       H     6.08406    9.16447   -2.07494
       O     5.15276    9.44899   -2.04155
      H1     5.18653   10.30074   -1.55438
       H     1.29805    6.19507   -4.48652
       O     1.83143    6.40435   -5.29530
      H1     1.06169    6.42150   -5.89723
       H     3.75370    8.28734   -0.97954
       O     3.02513    7.65645   -0.82605
      H1     3.64964    6.86272   -1.02966
       H     2.81411   -0.60709    2.18648
       O     3.40579   -0.14662    1.57603
      H1     2.81782    0.59849    1.32514
       H     0.82578    0.99137   -4.01169
       O     0.01772    1.05192   -3.56559
      H1    -0.27769    1.91466   -3.86402
       H     3.86602    4.06050   -1.56888
       O     3.43353    3.25813   -1.24996
      H1     4.10650    2.58767   -1.07829
       H     3.54381   -0.48160   -0.13795
       O     3.40788   -0.97771   -1.05586
      H1     4.00708   -0.45785   -1.59618
       H     0.82361    7.53819   -2.74359
       O     1.31867    8.34978   -2.79959
      H1     2.09321    8.14287   -2.21329
       H     7.16971   -0.09102    1.04733
       O     7.16195   -0.33208    0.13298
      H1     7.97589    0.21001   -0.09712
       H     0.37966    0.16927   -1.93546
       O     0.79431   -0.05275   -1.05702
      H1     1.47788   -0.74723   -1.17654
       H     2.89754    5.08792   -6.44225
       O     3.13497    4.57191   -7.21409
      H1     2.27201    4.55521   -7.65177

