90
frame 3 | Written by MDAnalysis XYZWriter (release 2.4.3)
       H    14.95649    9.36980   18.16743
       O    15.30986    9.79789   18.98134
      H1    16.20659   10.20173   18.58821
       H    16.42022    2.80334   10.75561
       O    16.47692    2.00273   11.34352
      H1    16.81210    1.33644   10.67930
       H    13.12865    5.87581   12.53284
       O    13.95405    5.42836   12.40200
      H1    13.78946    4.68803   11.78921
       H    10.79890    7.45052   13.42980
       O     9.79380    7.57372   13.44395
      H1     9.59132    8.10225   12.66931
       H    14.68464    2.74880    9.33896
       O    14.72451    3.67734    9.41064
      H1    15.06570    3.97152    8.53414
       H    15.33982    5.73410   13.48130
       O    15.91142    6.24141   14.06853
      H1    16.32367    5.45596   14.43625
       H    13.36646    7.77749   19.33628
       O    13.60763    7.40853   18.44019
      H1    14.17624    6.73604   18.81189
       H    17.90901   12.25958   12.14370
       O    18.39472   11.57462   12.62498
      H1    17.92683   10.74191   12.47756
       H    16.20374    3.78046   17.39116
       O    16.30735    4.67095   17.09433
      H1    15.45304    4.82593   16.70366
       H    13.75255    8.50706   17.32927
       O    14.13334    9.10391   16.59661
      H1    13.45753    9.82922   16.67109
       H    14.41902    9.98133   14.39845
       O    14.53565   10.17192   13.44125
      H1    15.17917    9.46348   13.17912
       H    14.54019    6.23995   15.40941
       O    13.72435    5.91123   15.84693
      H1    13.68805    6.53511   16.57149
       H    13.34404    9.76726   11.00662
       O    12.38501    9.70703   11.14885
      H1    12.09582   10.60909   10.78744
       H    19.52843    6.31943   14.93522
       O    18.86247    6.97540   14.55898
      H1    18.05964    6.41149   14.51074
       H    13.17708    7.95966   13.74651
       O    12.45486    7.50075   13.29265
      H1    12.45793    8.00723   12.46743
       H    17.97673    1.27221   16.21011
       O    18.01111    1.82748   17.01231
      H1    18.76511    1.46700   17.50176
       H    13.80684    2.55305   13.01245
       O    14.00008    2.01494   12.22807
      H1    14.94475    2.39464   12.04852
       H    15.72471    1.63925   17.01162
       O    14.95384    2.17148   17.18771
      H1    14.68421    1.83157   18.05221
       H    17.78250    9.88609   17.28108
       O    17.42185   10.68495   17.65313
      H1    17.19531   11.18545   16.85465
       H    16.99262    1.92505   14.57625
       O    17.11032    0.97390   14.73705
      H1    17.51076    0.71087   13.86528
       H    11.39093    5.32312   15.21007
       O    10.75691    4.66610   15.50731
      H1     9.94848    5.14744   15.66834
       H    11.35067    3.91482   18.05422
       O    12.11642    3.48179   17.53465
      H1    11.85836    3.86571   16.63485
       H    13.40890    4.13086   14.89483
       O    13.92118    3.24324   14.72977
      H1    13.82855    2.79529   15.57946
       H    19.26409    5.56492   11.73310
       O    18.37537    5.12953   11.73554
      H1    18.65673    4.36440   12.31165
       H    18.36591    3.26350   13.78506
       O    19.29677    3.27933   13.47156
      H1    19.24177    2.85087   12.63993
       H    18.15788    4.26896    9.30914
       O    18.24325    3.32226    9.19335
      H1    18.80400    2.97105    9.93334
       H    17.27753    5.77681   10.06386
       O    17.39165    5.80521    9.12183
      H1    16.60042    5.49380    8.77573
       H    18.84578    4.28907   17.61189
       O    19.20906    4.69071   18.41424
      H1    19.04338    4.02331   19.06460
       H    15.49913    3.48362   14.60790
       O    16.49257    3.52141   14.64869
      H1    16.65261    3.83405   15.56074
       H    18.03347    8.75264   11.97582
       O    17.05273    8.52503   12.06859
      H1    16.88189    8.08120   12.91783

