90
frame 3 | Written by MDAnalysis XYZWriter (release 2.4.3)
       H   -12.80590  -16.78599   -7.27136
       O   -13.25986  -15.98319   -7.29695
      H1   -12.83013  -15.53403   -6.59258
       H    -7.14125  -15.55737   -1.33727
       O    -6.20936  -15.82880   -1.41142
      H1    -5.83309  -14.90099   -1.41269
       H    -3.68626  -15.68336   -5.73254
       O    -3.87732  -15.83369   -4.78875
      H1    -2.97019  -15.85784   -4.46604
       H   -12.44529  -12.65548   -8.95218
       O   -13.05741  -13.34923   -8.95721
      H1   -12.53727  -14.21494   -8.91171
       H   -11.60875  -13.00712   -2.83688
       O   -12.30769  -13.31495   -3.48249
      H1   -12.64889  -14.11712   -3.01287
       H    -4.18759  -18.57151   -9.88187
       O    -4.78489  -19.22982  -10.29358
      H1    -4.80145  -19.81535   -9.52885
       H    -8.38230  -13.72665   -1.46674
       O    -8.60254  -14.60220   -1.83644
      H1    -9.00478  -14.99008   -1.04522
       H    -4.91855  -17.65280   -0.84767
       O    -4.90396  -18.59128   -0.99537
      H1    -5.38750  -18.68032   -1.87241
       H   -10.34683  -18.24542   -9.84248
       O    -9.68454  -17.50350   -9.92823
      H1   -10.14801  -16.71860   -9.56024
       H    -6.41191  -14.78074   -7.82353
       O    -7.31749  -14.55857   -7.75702
      H1    -7.17935  -13.68249   -7.35551
       H    -6.43608  -13.37231   -3.84480
       O    -6.53296  -12.56193   -4.39802
      H1    -6.66851  -11.90587   -3.68833
       H    -8.86936  -15.03732   -6.67591
       O    -9.75796  -15.06007   -6.29129
      H1    -9.95323  -14.09062   -6.38366
       H    -6.93587  -19.23462   -3.31382
       O    -5.97594  -19.18408   -3.48905
      H1    -5.85722  -18.23606   -3.70925
       H    -9.63372  -15.26611   -3.25650
       O   -10.09952  -15.95776   -3.79002
      H1   -10.02274  -15.57980   -4.66637
       H   -11.37682  -13.00350   -5.22200
       O   -11.26443  -12.72017   -6.13442
      H1   -12.12430  -12.42188   -6.41880
       H    -7.65190  -15.34007  -10.91391
       O    -7.33481  -14.45299  -10.58263
      H1    -7.54499  -14.49602   -9.63071
       H    -7.93252  -17.65597   -9.13438
       O    -7.02182  -17.93780   -8.94433
      H1    -6.63615  -18.15253   -9.76634
       H   -12.51694  -18.94125   -6.65460
       O   -11.84103  -18.41876   -7.05673
      H1   -11.06941  -18.69983   -6.54927
       H    -3.96890  -19.16790   -5.97961
       O    -4.35788  -18.68006   -6.74194
      H1    -5.27145  -18.43227   -6.39256
       H   -14.81215  -16.35593  -10.26204
       O   -13.94111  -16.44849  -10.69524
      H1   -13.42129  -15.98682  -10.02152
       H   -13.56971  -18.58761   -3.28054
       O   -13.85505  -19.40126   -2.79264
      H1   -14.77374  -19.43060   -3.15088
       H    -7.57933  -18.19628  -12.08667
       O    -8.00797  -18.97641  -11.70401
      H1    -8.50986  -18.59554  -10.97697
       H    -6.85007  -17.27119   -7.13457
       O    -6.76838  -17.52641   -6.18202
      H1    -6.73703  -16.67178   -5.76944
       H    -3.96969  -15.73284   -8.46189
       O    -4.54089  -14.95963   -8.26720
      H1    -4.65901  -14.55451   -9.16950
       H    -3.41007  -17.88979   -8.24794
       O    -3.18671  -17.28335   -8.98083
      H1    -2.19009  -17.17871   -8.85936
       H   -10.54046  -14.79548   -8.38000
       O   -11.00174  -15.11792   -9.13942
      H1   -10.88073  -14.43517   -9.84325
       H    -5.59783  -15.89747   -4.47581
       O    -6.47553  -15.61186   -4.28569
      H1    -6.62837  -15.78594   -3.36989
       H   -13.70251  -16.47576   -3.23853
       O   -13.23185  -16.98904   -3.95957
      H1   -12.30312  -16.68778   -3.81800
       H    -8.61407  -19.61949   -6.59611
       O    -9.23368  -19.13542   -6.01290
      H1    -8.88153  -18.19778   -6.10479
       H    -8.88346  -19.04022   -4.11205
       O    -8.78707  -18.90699   -3.16670
      H1    -8.92735  -17.96907   -2.97556

