90
frame 3 | Written by MDAnalysis XYZWriter (release 2.4.3)
       H    -9.43890  -18.81567   14.56606
       O    -9.96208  -19.00487   15.39961
      H1    -9.24728  -19.42160   15.90107
       H   -11.93749  -16.20318   18.02428
       O   -11.88582  -16.39770   18.97312
      H1   -12.72834  -16.06661   19.26969
       H   -13.60613  -12.06357   15.20546
       O   -14.22261  -11.69086   14.55492
      H1   -14.50643  -12.55172   14.06356
       H   -13.42710  -13.28377   17.70281
       O   -13.09573  -13.61222   16.88418
      H1   -12.12332  -13.63373   17.04315
       H    -9.60087  -19.69184   12.61654
       O    -9.42522  -18.72550   12.77677
      H1   -10.14327  -18.25334   12.22668
       H   -16.71643  -13.98613   17.71427
       O   -16.24900  -13.38943   17.05928
      H1   -15.42243  -13.84334   16.91028
       H   -15.01083  -18.75938   15.22122
       O   -14.45362  -18.98368   15.97419
      H1   -13.72314  -19.43736   15.50974
       H    -5.44129  -13.51426   17.44864
       O    -4.99963  -12.71499   17.84447
      H1    -4.24189  -13.03130   18.34629
       H   -15.04117  -20.02845   13.07003
       O   -15.36473  -19.14000   13.32227
      H1   -14.86822  -18.52824   12.78143
       H   -16.42106  -11.66037   18.22226
       O   -16.58663  -11.04916   18.95262
      H1   -17.07675  -11.65145   19.53685
       H   -11.27612  -17.43646   10.65609
       O   -11.49959  -17.78253   11.55063
      H1   -11.69366  -16.99950   12.07337
       H   -15.53431   -9.31469   16.43047
       O   -15.17309  -10.16702   16.67415
      H1   -15.06156  -10.65885   15.88970
       H    -8.92463  -16.05503   13.45651
       O    -9.48260  -15.24057   13.66810
      H1    -9.52332  -14.78641   12.81837
       H   -11.99982  -13.72844   13.74624
       O   -11.57144  -12.90098   13.90620
      H1   -12.06407  -12.27331   13.41022
       H   -12.51984  -16.44740   13.94577
       O   -12.14848  -15.80082   13.36813
      H1   -11.23986  -15.74280   13.78793
       H   -17.14219  -16.57504   16.28601
       O   -17.63007  -16.59617   15.40134
      H1   -18.19927  -17.39938   15.44189
       H   -10.04116  -13.15125   16.27210
       O   -10.49380  -13.27766   17.13548
      H1   -10.64845  -12.37857   17.49579
       H    -9.04550  -14.75041   19.35951
       O    -9.21829  -13.80717   19.45480
      H1    -9.51664  -13.57852   18.58817
       H   -18.43329  -14.62859   17.94563
       O   -18.14240  -14.14118   18.74864
      H1   -18.86813  -13.42768   18.86694
       H    -5.08400  -17.97305   17.97846
       O    -5.70431  -18.29741   17.36875
      H1    -6.54975  -18.38389   17.89272
       H   -15.26317  -15.99698   18.09661
       O   -15.64647  -16.69263   17.53140
      H1   -14.96935  -16.91577   16.88235
       H    -6.14941  -19.32594   15.56989
       O    -5.76915  -19.63693   14.73230
      H1    -4.88084  -19.27816   14.85804
       H   -10.38088  -15.93040   15.69057
       O   -11.16611  -16.46517   15.91132
      H1   -10.97167  -17.39539   15.72519
       H   -15.11318  -14.96589   12.90233
       O   -14.66508  -14.06057   13.05177
      H1   -14.16690  -13.95698   12.20593
       H   -10.04647  -11.95160   14.56456
       O    -9.09496  -11.88060   14.49831
      H1    -8.78467  -12.79671   14.22372
       H    -6.84919  -17.69807   13.19700
       O    -6.88760  -17.21605   14.02443
      H1    -6.48033  -17.94171   14.58462
       H   -13.58804  -12.07084   19.63037
       O   -14.37804  -12.48714   19.28420
      H1   -15.00530  -11.77879   19.15287
       H    -9.48449   -9.84742   18.20255
       O   -10.31760  -10.08901   17.82128
      H1   -10.87301  -10.30480   18.60575
       H    -6.83684  -15.67470   16.59988
       O    -6.35083  -15.08532   17.15514
      H1    -6.18775  -15.68739   17.93243
       H   -15.86791  -19.18410   19.88823
       O   -16.46899  -19.11078   19.16543
      H1   -15.94580  -18.51578   18.60647

