90
frame 2 | Written by MDAnalysis XYZWriter (release 2.4.3)
       H     4.46831  -10.68565   11.60477
       O     3.59308  -10.26534   11.66394
      H1     3.05381  -10.96167   11.27756
       H     8.82942   -8.40200    8.75739
       O     9.24361   -7.68245    9.26397
      H1     9.09725   -8.13067   10.09334
       H     6.66436   -9.93625    7.14046
       O     6.21078  -10.42824    6.44937
      H1     6.90092  -11.13498    6.23506
       H    11.57663  -11.37314   10.89691
       O    11.05597  -11.25897   10.11258
      H1    10.29772  -10.75939   10.35638
       H     5.59046  -11.62628   12.47275
       O     6.23060  -11.59990   11.68059
      H1     5.97757  -12.48216   11.27624
       H     6.09855   -7.55467    8.74645
       O     5.41578   -7.94216    9.31547
      H1     5.34046   -7.31721   10.02122
       H     6.14772   -6.38723   16.64989
       O     6.89206   -6.41873   15.97912
      H1     7.03288   -7.38838   16.07262
       H    11.41578   -7.24308   10.85662
       O    11.02693   -7.32295   11.69861
      H1    10.74894   -6.41365   11.80465
       H    12.24305  -12.37750    9.07394
       O    12.84546  -13.10735    8.90438
      H1    13.64548  -12.64180    8.58390
       H     6.90650   -8.31884   11.69616
       O     6.83038   -7.90729   12.59964
      H1     5.82128   -7.79407   12.67031
       H    10.68331  -13.53119   14.36008
       O    11.18674  -14.20452   14.76555
      H1    11.31030  -14.78621   13.99630
       H     8.80859  -11.32859   15.15932
       O     8.85080  -12.27393   14.99987
      H1     8.20522  -12.56231   15.66239
       H     7.93668  -13.05170    7.15184
       O     8.23725  -12.40181    6.43785
      H1     8.06186  -12.85534    5.64038
       H     5.56480   -8.28153   15.20001
       O     5.76977   -9.06611   15.72738
      H1     5.05702   -9.07476   16.34693
       H    12.14889   -8.76314    7.78758
       O    12.37617   -8.81947    6.86079
      H1    12.88031   -8.03457    6.62204
       H     3.33515   -7.30600   13.26485
       O     4.00683   -7.96558   13.41835
      H1     3.74445   -8.64337   12.80779
       H     8.84462  -10.73384    7.44779
       O     8.66216   -9.77936    7.58045
      H1     9.24108   -9.45512    6.89165
       H    11.16600   -8.73362   13.04400
       O    11.19023   -9.64995   13.36474
      H1    10.54620   -9.52132   14.05739
       H     8.82658  -12.19703   13.37020
       O     8.67178  -12.12992   12.39701
      H1     7.72226  -11.93905   12.33622
       H     7.01136   -5.31568    8.59366
       O     7.35128   -6.06685    8.06813
      H1     7.97167   -6.41251    8.71101
       H     6.89592   -5.73964   14.29363
       O     6.72771   -5.18650   13.50500
      H1     6.70535   -5.88354   12.80382
       H    12.04891   -6.67180    8.71359
       O    11.93582   -7.53169    9.21064
      H1    10.98399   -7.57585    9.32726
       H     9.98124   -9.53864   11.85829
       O     9.12348   -9.57188   11.40780
      H1     8.73418  -10.42557   11.68164
       H    14.50288  -10.69001   10.63450
       O    14.16104  -10.32984   11.46163
      H1    13.54118   -9.64428   11.22558
       H    13.13332   -9.04157   14.25014
       O    13.98980   -8.71745   14.53033
      H1    13.68996   -7.86315   14.86938
       H     7.33851   -9.41442   14.98017
       O     8.23919   -9.21378   14.58701
      H1     8.05464   -8.71533   13.78205
       H     4.23770  -11.72926   14.47541
       O     5.20841  -11.50772   14.31917
      H1     5.30457  -10.62856   14.75728
       H     8.98219   -4.91519   13.03061
       O     9.90573   -4.67746   13.17781
      H1     9.87266   -3.72242   12.98800
       H     6.62939  -14.24428    9.21933
       O     6.22322  -14.03902    8.37840
      H1     5.80203  -13.17701    8.48063
       H     4.38780   -5.24905   11.02845
       O     5.11643   -5.64447   11.49338
      H1     4.90690   -5.25384   12.35639

