90
frame 3 | Written by MDAnalysis XYZWriter (release 2.4.3)
       H     8.12157   12.81388   -8.76420
       O     8.87887   13.21802   -8.36248
      H1     9.10839   13.92289   -9.00672
       H    15.93936   17.00119  -14.07394
       O    15.33279   16.69091  -13.35137
      H1    14.38723   16.99237  -13.65074
       H     7.99322   16.03856  -15.81169
       O     8.75358   16.37274  -15.21693
      H1     8.59257   17.27930  -14.93679
       H    10.31969   16.79243  -16.82056
       O    10.63563   16.13050  -17.39751
      H1    10.40135   15.34824  -16.88740
       H    12.06896   16.09200  -16.59175
       O    12.97233   16.01030  -16.26560
      H1    13.29209   15.11404  -16.42033
       H     1.97078   16.29251  -10.83533
       O     2.19064   17.20741  -10.83497
      H1     1.44346   17.40315  -11.48829
       H    11.26366   15.36419  -12.55572
       O    10.67278   14.85080  -11.97595
      H1     9.87100   15.26628  -12.24265
       H     7.39148   13.12358  -14.88614
       O     7.91599   12.90221  -15.68963
      H1     8.73411   13.31102  -15.40577
       H    10.89016   18.66643  -10.57197
       O    11.48802   18.03483  -10.14181
      H1    12.36206   18.15121  -10.62534
       H    11.76198   15.92087   -9.73290
       O    11.79404   15.47527   -8.88113
      H1    11.83135   16.24494   -8.35879
       H     7.91432   18.89685  -17.71176
       O     8.34367   19.77641  -17.44902
      H1     9.11899   19.78308  -18.04362
       H     5.29694   17.04870   -6.79737
       O     4.52823   17.70370   -6.69355
      H1     3.82344   17.33639   -7.33137
       H    12.71344   16.10325  -14.57728
       O    12.36552   16.25995  -13.67471
      H1    11.94357   17.12900  -13.80946
       H     9.23406   19.10630  -14.22182
       O     8.37582   19.11261  -14.69195
      H1     8.56470   19.45518  -15.58216
       H    14.60122   17.10231  -11.49975
       O    14.15769   17.46769  -10.76756
      H1    14.54881   16.94192  -10.10680
       H     2.66702   19.33358  -14.97450
       O     2.29367   18.95185  -14.12159
      H1     2.61737   19.55910  -13.44174
       H    10.08626   17.42822   -7.16841
       O    10.44370   17.84694   -6.34674
      H1    10.01237   17.14884   -5.68819
       H     5.57389   15.10194   -7.19939
       O     6.26825   15.82433   -7.00240
      H1     6.44096   15.49267   -6.07698
       H    11.38554   19.10405  -15.22794
       O    11.36125   18.92290  -14.26707
      H1    11.60029   19.75756  -13.83189
       H    11.39524   13.13820  -11.22036
       O    11.35803   12.22794  -10.98107
      H1    10.46611   12.03507  -11.25091
       H     7.67475   16.09604  -13.59429
       O     7.91961   16.24136  -12.64363
      H1     7.31023   15.69870  -12.13121
       H    11.42255   19.57189   -7.12166
       O    11.95657   19.79207   -7.87464
      H1    11.65327   19.14210   -8.56767
       H     5.39142   17.23703  -15.60815
       O     4.64481   16.71684  -15.24043
      H1     4.03171   17.39249  -15.01757
       H     5.96140   18.51094  -10.27311
       O     6.59631   18.96498   -9.78364
      H1     6.67426   19.81674  -10.25764
       H     6.12284   14.24852  -12.50298
       O     6.08277   14.42381  -11.55350
      H1     5.75628   15.30190  -11.62233
       H     9.09429   18.11083  -11.75177
       O     9.49792   18.96716  -11.86069
      H1     8.77205   19.52203  -12.15338
       H     6.88766   15.15233  -17.67724
       O     6.76869   15.19292  -16.67988
      H1     6.98200   14.28212  -16.44859
       H     3.97576   17.33306  -11.56769
       O     4.89046   17.39970  -11.76697
      H1     4.90079   17.96570  -12.52868
       H     7.83689   17.78953   -9.06738
       O     8.40008   17.29387   -8.40150
      H1     7.81360   16.57250   -8.16265
       H    11.18222   19.56000  -17.57026
       O    11.27107   18.71730  -17.04604
      H1    12.19856   18.43869  -17.26916

