90
frame 2 | Written by MDAnalysis XYZWriter (release 2.4.3)
       H    16.27080   -0.79844   10.11508
       O    16.72000    0.05986   10.09786
      H1    17.55733   -0.10886    9.67317
       H    14.43141   -0.62321   18.89029
       O    14.62030    0.27803   19.33976
      H1    15.41823    0.15592   19.87806
       H    14.95954    0.33957   12.44352
       O    14.92096   -0.44336   13.03650
      H1    15.59947   -0.21619   13.68987
       H    11.82872    1.05309   10.90480
       O    11.20375    0.69493   10.24109
      H1    11.55746   -0.22813   10.26885
       H     9.53296   -1.35612   13.57421
       O    10.11437   -1.64322   12.87372
      H1    10.74291   -0.88906   12.82933
       H    13.06937    0.75996   16.51275
       O    12.39886    1.20831   16.01588
      H1    11.59667    1.37656   16.56186
       H     9.94676   -2.85152   15.71468
       O     9.06550   -2.93102   16.14071
      H1     9.23293   -3.84124   16.53255
       H    10.94138   -4.38276   14.69854
       O    11.56699   -3.88212   15.19830
      H1    12.11670   -4.54648   15.68933
       H     9.16876   -2.13092   20.17041
       O     8.98258   -2.03801   19.21276
      H1     9.65462   -2.62100   18.78334
       H    11.06365   -2.29834   10.94529
       O    11.54703   -2.09685   10.14681
      H1    12.44016   -2.17900   10.45379
       H    14.98003   -5.10382   12.62716
       O    15.15337   -4.75852   11.76230
      H1    15.94515   -4.25627   11.91243
       H    14.48177   -1.51224   11.54241
       O    14.16290   -1.80987   10.66955
      H1    14.31878   -2.78072   10.73760
       H    18.07640   -0.50221   11.83576
       O    18.61621    0.06339   12.43413
      H1    19.16860   -0.57701   12.83128
       H    18.57218    1.05747   16.24234
       O    18.42805    1.56304   17.04673
      H1    19.19699    1.19712   17.51068
       H    13.84387    2.68989   13.05621
       O    13.97583    2.02807   12.38079
      H1    14.77904    2.19740   11.89746
       H    12.36967    0.47554   14.46910
       O    12.17973    0.03917   13.62363
      H1    12.53926    0.76386   13.07955
       H    16.33669    1.25804   17.13387
       O    15.51768    1.76101   17.29300
      H1    15.23889    1.32462   18.14009
       H    12.55069   -3.14038   18.35837
       O    11.75820   -3.72999   18.24740
      H1    11.86394   -4.24688   19.09384
       H    16.99506    1.50963   14.66855
       O    17.04609    0.55517   14.63261
      H1    17.51421    0.38593   13.82250
       H    11.96459   -5.34550   17.42231
       O    11.98195   -6.24115   17.11131
      H1    11.05264   -6.32091   16.91383
       H    14.95727   -2.90968   14.89857
       O    15.84853   -3.17528   14.63449
      H1    16.49015   -2.77332   15.23937
       H    12.51587   -2.18948   15.61521
       O    13.34717   -1.70239   15.68993
      H1    13.35406   -1.26532   14.80221
       H    13.48542    3.87948   15.17798
       O    13.80916    3.03504   14.76516
      H1    13.42401    2.34255   15.45087
       H    14.15717   -1.82310   17.42173
       O    13.96444   -2.18150   18.28419
      H1    14.77697   -2.61673   18.51730
       H    18.00802   -2.58118   12.70979
       O    17.26289   -2.64184   12.10933
      H1    16.61539   -2.64050   12.85765
       H     8.98219   -4.91519   13.03061
       O     9.90573   -4.67746   13.17781
      H1     9.87266   -3.72242   12.98800
       H     9.74858    0.53595   18.03780
       O     9.68016   -0.13580   17.36509
      H1     9.35271   -0.87080   17.91520
       H     8.73259   -0.23328   15.75690
       O     8.36187   -0.06621   14.87058
      H1     8.91614    0.65120   14.60698
       H    18.25879   -3.67722   16.43564
       O    18.04795   -2.79861   16.78995
      H1    17.80379   -3.04033   17.72421
       H    15.36276    3.33759   14.73472
       O    16.35678    3.37589   14.80329
      H1    16.45209    3.52700   15.77908

