90
frame 3 | Written by MDAnalysis XYZWriter (release 2.4.3)
       H    -2.39029    4.02717    4.54352
       O    -2.92436    4.32171    3.78303
      H1    -3.67843    4.73859    4.33351
       H    -8.20556    1.38867    8.65534
       O    -7.70908    1.30574    9.49931
      H1    -8.38195    1.71376   10.13088
       H     0.54367    5.41097    7.21967
       O     0.74688    4.68042    6.63708
      H1     1.07773    5.20772    5.88514
       H    -4.46537    6.70991   10.31322
       O    -3.71882    6.14116   10.06543
      H1    -3.60626    6.46206    9.14716
       H    -3.49258   -1.38364    9.87971
       O    -3.91441   -2.05627    9.34836
      H1    -3.18472   -2.60907    9.01711
       H    -1.37416    4.32199   10.55333
       O    -1.52499    3.63386    9.88363
      H1    -2.30982    3.99667    9.40992
       H     1.36998    3.45416    7.96337
       O     1.82076    3.19267    8.83737
      H1     1.78025    3.98571    9.32450
       H    -3.69300    3.24507    7.78146
       O    -3.69915    4.17895    7.99056
      H1    -4.38338    4.26982    8.66638
       H     0.13323   -0.36164    8.32995
       O    -0.62371   -0.94215    8.56842
      H1    -0.90016   -0.52501    9.34292
       H    -4.03826    2.86061   12.83239
       O    -4.43715    2.10880   12.46525
      H1    -4.07592    1.34032   12.95030
       H    -6.36379    4.14569    9.77270
       O    -5.91003    3.37975    9.40582
      H1    -6.66205    2.73099    9.43054
       H    -8.27673    2.83130    6.86937
       O    -8.87540    2.11360    7.10965
      H1    -9.61055    2.17100    6.45465
       H    -4.89677    1.12094    7.07712
       O    -4.63073    1.99717    6.76726
      H1    -5.16204    2.47078    7.42964
       H    -7.54697    4.30075    5.71729
       O    -6.95065    4.27165    6.51446
      H1    -6.14633    4.53140    6.04237
       H    -5.83364    6.16497    4.52744
       O    -5.42794    5.30439    4.47973
      H1    -5.58867    5.12534    3.52387
       H    -6.90490    2.42050    3.71817
       O    -7.83933    2.50982    3.52789
      H1    -8.06392    1.65459    4.00214
       H    -2.01776    6.45999   10.15702
       O    -1.09965    6.61111   10.52983
      H1    -0.64512    6.38788    9.69174
       H    -2.04923    3.66553    6.71601
       O    -1.56100    3.51401    5.88154
      H1    -0.69784    3.96596    6.04901
       H    -5.11398   -1.73430    8.24444
       O    -5.91673   -1.27208    7.82295
      H1    -6.54639   -1.25717    8.56680
       H    -7.24246    5.60106    7.37791
       O    -7.59679    6.42347    7.83765
      H1    -8.37999    6.01882    8.33558
       H    -5.90830    1.14917   12.26102
       O    -6.56497    0.50093   11.95974
      H1    -6.93630    0.88559   11.15832
       H    -3.72612    5.23484   13.69418
       O    -3.83505    4.74224   12.84165
      H1    -4.33213    5.42215   12.32814
       H    -2.35132    1.12284    4.43774
       O    -2.55429    0.36601    3.85935
      H1    -3.54721    0.33746    4.05073
       H    -0.08953    1.97283   12.01063
       O    -0.44173    1.45955   11.26532
      H1    -0.82492    2.11323   10.70978
       H     0.78864    7.32483    7.53060
       O     0.52412    6.72452    8.22225
      H1    -0.41569    7.08339    8.09719
       H    -2.80328    0.09075   11.20744
       O    -2.31302   -0.78770   11.25249
      H1    -1.57826   -0.46280   11.81209
       H    -6.92287   -0.08157    5.44018
       O    -6.06917   -0.57418    5.27690
      H1    -5.79687   -0.87555    6.16675
       H    -2.55520    8.59128    8.12352
       O    -1.88169    7.98552    7.66183
      H1    -1.62882    8.52446    6.88980
       H    -2.95520    1.89786    9.51968
       O    -3.66915    1.23665    9.66262
      H1    -4.37321    1.80865    9.96484
       H    -4.90076    1.88188    4.88014
       O    -4.84388    2.08909    3.94241
      H1    -4.19009    2.77526    3.83791

