90
frame 3 | Written by MDAnalysis XYZWriter (release 2.4.3)
       H    -1.75248  -14.91874    2.09620
       O    -2.11355  -14.04275    1.84054
      H1    -2.54863  -13.79968    2.68879
       H     2.16259  -14.07882    7.34891
       O     1.21004  -14.02975    7.30778
      H1     1.03151  -14.26128    6.36506
       H    -3.64814  -11.54565    7.48475
       O    -3.52601  -11.06311    6.59872
      H1    -2.84187  -10.37999    6.79356
       H    -1.40730  -15.46491    8.22223
       O    -1.01586  -15.80475    7.41158
      H1    -0.19487  -15.27379    7.51393
       H    -4.84893  -16.05308    9.47252
       O    -5.68460  -16.12145    9.92370
      H1    -6.26526  -16.16193    9.11944
       H     0.04953  -17.48021    7.00193
       O     0.56856  -18.21970    6.63329
      H1     0.20063  -18.55475    5.88301
       H     0.83038  -12.86114    2.13574
       O     0.53767  -13.63716    1.78023
      H1    -0.44533  -13.67659    2.05284
       H    -1.49509  -12.32394    3.83187
       O    -1.01030  -11.60931    3.31802
      H1    -1.20823  -10.84882    3.93028
       H    -2.84721  -17.35802   10.71324
       O    -2.85702  -16.90213    9.84884
      H1    -2.68928  -17.58981    9.19934
       H    -5.50985  -15.39214    1.95387
       O    -6.18395  -15.16817    2.63308
      H1    -5.78040  -15.49097    3.48184
       H    -2.63867  -18.26669    7.15968
       O    -2.78156  -18.66211    8.02927
      H1    -3.71881  -18.83528    8.04272
       H    -2.74693  -18.54827    1.32393
       O    -3.25718  -18.32295    2.15708
      H1    -2.52771  -18.31605    2.78328
       H    -1.06766  -10.56670    8.12634
       O    -1.36950   -9.74935    7.76714
      H1    -0.55995   -9.24538    7.75631
       H    -3.56571  -13.34683    9.07532
       O    -4.31365  -12.80518    8.76494
      H1    -4.79014  -13.34646    8.12502
       H    -1.59106  -14.05529   10.42759
       O    -1.85182  -13.29613    9.87503
      H1    -2.20476  -12.67513   10.52851
       H    -1.11923  -16.49519   10.04508
       O    -0.32998  -15.97062   10.19204
      H1     0.31806  -16.59456   10.61146
       H    -5.36291  -18.66433    6.38090
       O    -5.32801  -18.77109    7.30671
      H1    -6.29141  -18.86404    7.53526
       H    -7.25143  -13.47364    7.66740
       O    -6.62273  -14.17733    7.38824
      H1    -7.24350  -14.92125    7.27279
       H    -0.85427  -14.38535    4.51155
       O    -0.38225  -13.68291    4.93047
      H1    -0.01417  -13.27001    4.10353
       H    -5.35710  -16.25139    5.80197
       O    -5.36286  -16.59031    4.93953
      H1    -6.24840  -16.94351    4.84445
       H    -2.62174  -15.02801    6.37197
       O    -3.58023  -14.76499    6.60143
      H1    -3.66314  -13.91942    6.12821
       H    -3.47198  -16.85268    0.89287
       O    -3.68327  -16.00213    0.39022
      H1    -3.09477  -15.37166    0.81963
       H    -5.45946  -10.53823    5.58754
       O    -6.35218  -10.46900    5.95610
      H1    -6.14423   -9.88431    6.70207
       H    -0.44513  -12.42342    9.23777
       O     0.20271  -11.85882    8.75180
      H1     0.42174  -12.42324    7.99630
       H    -2.70471  -18.86526    5.46609
       O    -2.71101  -17.88481    5.45725
      H1    -3.67127  -17.63190    5.20116
       H    -3.47482  -12.01627    4.71801
       O    -3.56942  -12.85965    4.21473
      H1    -4.09872  -12.57348    3.47544
       H    -1.62046  -16.55376    4.21980
       O    -1.87032  -15.62425    3.94992
      H1    -2.68770  -15.53151    4.47874
       H    -0.03758  -19.78700    3.41655
       O    -0.36106  -18.86588    3.42026
      H1     0.45478  -18.40004    3.07140
       H    -5.12704  -12.02408   10.23250
       O    -5.81938  -11.60934   10.71644
      H1    -5.56076  -11.46076   11.66044
       H    -5.01576  -18.46005    3.58140
       O    -5.74639  -19.03806    3.89293
      H1    -6.44136  -18.86337    3.21314

