90
frame 3 | Written by MDAnalysis XYZWriter (release 2.4.3)
       H    17.75361   -1.03331   10.58482
       O    17.71057   -0.13639   10.18743
      H1    18.64249   -0.03984    9.96405
       H    14.51177    0.53903   13.20426
       O    14.96826   -0.26070   13.53251
      H1    15.74294    0.20391   13.92135
       H    16.42022    2.80334   10.75561
       O    16.47692    2.00273   11.34352
      H1    16.81210    1.33644   10.67930
       H    15.84951    0.60996    9.04648
       O    15.32637    1.27309    8.59999
      H1    15.89626    1.71739    7.99039
       H    11.34344   -3.29872   14.60613
       O    11.39025   -3.25302   15.60976
      H1    11.82323   -4.05183   15.96131
       H    18.54203   -8.91333   11.59349
       O    19.50238   -9.06635   11.80838
      H1    19.99815   -8.41862   11.29116
       H    19.11580   -1.66150   14.81073
       O    19.07694   -2.06487   13.90947
      H1    19.27983   -2.94413   14.26059
       H    10.24668   -2.51712   10.82465
       O    10.85716   -2.23166   10.15215
      H1    11.68285   -2.19336   10.60863
       H    12.24854   -7.65922   10.50430
       O    11.58157   -7.61981   11.21382
      H1    11.68333   -6.72616   11.60728
       H    14.55131   -4.52681    7.80216
       O    15.19569   -5.18295    8.20139
      H1    14.93804   -5.13042    9.11331
       H    15.89625   -4.94174   12.46039
       O    16.03944   -4.50382   11.62478
      H1    16.85887   -3.97232   11.76692
       H    18.49402   -6.81269   13.57184
       O    17.59368   -7.11052   13.72460
      H1    17.39320   -7.57572   12.91986
       H    13.65256   -1.32060   11.90764
       O    13.57276   -1.78692   11.04309
      H1    14.06347   -2.57022   11.24176
       H    18.13013    0.18932   11.88830
       O    18.67079    0.51198   12.58730
      H1    19.28522   -0.21993   12.72527
       H    16.87242   -7.01285    8.09065
       O    17.61588   -6.76818    7.49054
      H1    17.15418   -6.52740    6.68110
       H    16.87440   -4.41602    9.08809
       O    17.81429   -4.01705    9.15180
      H1    18.23085   -4.59551    8.43605
       H    16.99262    1.92505   14.57625
       O    17.11032    0.97390   14.73705
      H1    17.51076    0.71087   13.86528
       H    17.39065   -8.30897   15.70967
       O    17.72587   -8.29008   16.60768
      H1    18.45747   -7.67603   16.59574
       H    15.19472   -3.59516   14.83910
       O    16.02347   -3.96607   14.43092
      H1    16.65710   -3.23813   14.51336
       H    15.29534   -8.51739    8.41104
       O    15.51618   -7.77986    8.94425
      H1    14.92126   -7.09167    8.50132
       H    13.10120   -2.33317   15.37271
       O    14.09809   -2.30209   15.36229
      H1    14.11982   -1.34808   15.14673
       H    15.79297   -0.74584    5.74758
       O    15.68742   -0.98836    6.68111
      H1    15.13269   -0.24294    6.95324
       H    18.12458   -5.50156   10.05013
       O    18.33786   -6.36005   10.40944
      H1    19.02161   -6.75153    9.88687
       H    16.43536  -10.17960   11.13086
       O    16.89893   -9.31989   11.24357
      H1    16.44304   -8.66375   10.71427
       H    14.76359   -8.65155   15.06083
       O    13.80356   -8.48959   15.01508
      H1    13.76664   -7.83386   14.29702
       H    14.62780   -2.57542   17.16384
       O    14.42316   -2.63988   18.10366
      H1    15.22574   -3.07382   18.44168
       H    18.02781   -1.99515   12.42511
       O    17.58212   -2.29792   11.58212
      H1    16.62833   -2.16922   11.78082
       H     9.79904   -5.07829   12.69802
       O    10.71367   -5.08627   12.35922
      H1    10.91311   -4.14223   12.41673
       H    16.88710   -3.96937   16.65164
       O    17.31787   -3.18994   17.09828
      H1    17.15391   -3.51996   17.97896
       H    14.15555   -2.03599    7.05594
       O    13.48032   -2.73406    7.16159
      H1    13.11983   -2.50298    7.97932

