90
frame 3 | Written by MDAnalysis XYZWriter (release 2.4.3)
       H    -9.17298   11.68257  -10.36178
       O    -8.31995   11.28151  -10.20202
      H1    -7.90038   11.53786  -11.03305
       H   -11.48035   19.66414   -8.64481
       O   -11.60706   19.45000   -9.59711
      H1   -11.66732   18.47953   -9.59324
       H    -8.66855   13.41190  -14.64936
       O    -9.33712   12.96705  -15.23744
      H1    -9.97471   12.60712  -14.60605
       H   -15.95389   14.67885  -13.24607
       O   -15.70799   15.33063  -12.56478
      H1   -16.52234   15.25567  -11.98709
       H   -12.50992   10.80113  -12.21953
       O   -12.85095   10.49304  -11.36979
      H1   -13.11581   11.34122  -11.00778
       H   -16.78124   17.09225  -10.03361
       O   -15.98987   16.77971   -9.59208
      H1   -15.66582   16.09743  -10.15146
       H   -14.03143   15.89582  -12.00297
       O   -13.34125   16.52501  -11.85645
      H1   -13.53128   17.20619  -12.51452
       H   -13.33855   18.53153  -15.33681
       O   -13.24973   18.51600  -16.29572
      H1   -12.42441   18.02381  -16.40256
       H   -12.64781   19.43692  -13.32991
       O   -12.78197   18.57051  -13.74167
      H1   -11.89655   18.13905  -13.58769
       H   -15.39360   11.71361  -14.99455
       O   -16.19864   11.67296  -14.43940
      H1   -15.85607   12.01320  -13.57483
       H   -18.24799   16.82222  -13.10635
       O   -17.48721   17.46997  -13.20831
      H1   -16.69134   16.92900  -13.14214
       H    -9.72257   13.65428  -10.14543
       O   -10.39704   12.96889   -9.88848
      H1   -10.35423   13.04282   -8.90313
       H   -10.00636   14.79212  -12.32417
       O    -9.15755   14.52764  -11.93134
      H1    -9.05945   15.27153  -11.32072
       H   -13.10975   14.41004  -18.73850
       O   -12.75287   15.18665  -18.28725
      H1   -13.34359   15.20602  -17.50285
       H   -12.79104   15.88508   -7.98149
       O   -12.50135   16.79029   -7.70599
      H1   -13.32457   17.19736   -7.36331
       H    -7.90375   14.44908  -13.34854
       O    -7.39858   14.32026  -14.15498
      H1    -7.16521   15.22394  -14.30960
       H   -11.01505   16.05016  -17.10075
       O   -11.02118   17.01221  -16.89793
      H1   -10.08653   17.26124  -16.72899
       H    -7.48711   15.34742   -9.82507
       O    -8.02735   16.13757   -9.97729
      H1    -7.48896   16.68166  -10.57343
       H   -11.19091   15.52823  -13.75273
       O   -11.52850   14.95927  -13.02579
      H1   -12.20760   15.55145  -12.60626
       H   -12.23581   11.94833  -14.19184
       O   -11.49863   12.10023  -13.59272
      H1   -11.57787   13.00707  -13.27285
       H   -13.26395   10.84221  -16.08236
       O   -13.51307   11.74614  -16.25470
      H1   -12.99778   11.88342  -17.10171
       H   -11.48076   16.86972   -9.24411
       O   -11.28260   16.93632  -10.18246
      H1   -12.11078   16.63939  -10.61826
       H    -7.99582   15.04391  -15.77158
       O    -8.06452   15.32256  -16.66893
      H1    -7.24954   15.01286  -17.09820
       H    -6.59606   12.74304  -13.32211
       O    -6.38263   11.89560  -12.85668
      H1    -5.45514   11.65076  -13.05737
       H    -9.49288   18.53577  -12.58749
       O   -10.19202   17.85843  -12.66440
      H1   -10.31831   17.65609  -11.72555
       H   -13.49661   13.06174   -9.41334
       O   -13.02785   12.92314  -10.27661
      H1   -12.06630   13.07036  -10.06475
       H   -10.50859   13.06331  -16.71272
       O   -11.07493   12.95084  -17.45660
      H1   -10.61712   13.41829  -18.16528
       H    -7.20278   17.20940  -13.13179
       O    -7.65861   17.19168  -13.96946
      H1    -8.58618   17.25756  -13.67899
       H   -16.51175   11.53097  -11.15620
       O   -16.25661   12.37002  -11.58188
      H1   -15.40753   12.47366  -11.13950
       H   -16.91972   14.21059  -14.98563
       O   -16.22014   14.52090  -15.55876
      H1   -16.63307   15.00684  -16.26539

