90
frame 2 | Written by MDAnalysis XYZWriter (release 2.4.3)
       H    11.48255  -12.31384   -3.82256
       O    10.67109  -12.72383   -4.14293
      H1    10.57442  -12.12647   -4.95272
       H    11.36607  -14.54991   -3.00508
       O    11.05447  -15.26174   -2.42358
      H1    11.42032  -15.98351   -2.93432
       H     5.75037  -14.09187   -3.68605
       O     4.78836  -13.95436   -3.32411
      H1     4.48781  -13.37109   -4.05959
       H    11.33098  -18.19292   -3.79315
       O    11.97374  -17.84655   -3.18268
      H1    12.70921  -18.46138   -3.25407
       H     8.97570  -14.71418   -4.86965
       O     9.70593  -14.90789   -5.49776
      H1    10.30383  -14.21376   -5.19989
       H     8.31385  -14.83216   -8.12908
       O     9.30709  -14.76503   -8.01505
      H1     9.37246  -14.75708   -7.07406
       H     8.03551  -11.91856   -6.34661
       O     7.11514  -11.85861   -6.58079
      H1     7.10676  -11.37417   -7.41472
       H     9.99667  -16.71094    0.07861
       O     9.43258  -16.48631    0.84177
      H1     9.60278  -15.52207    0.97079
       H     7.60382  -15.48392   -3.01449
       O     7.46377  -14.83964   -3.72248
      H1     7.01315  -15.44925   -4.33839
       H     5.75529  -17.32336   -1.66167
       O     5.31341  -16.94906   -2.44903
      H1     4.67021  -16.45912   -1.95881
       H    10.55057  -11.59852   -7.11440
       O    10.01524  -11.25746   -6.42163
      H1    10.14920  -10.28510   -6.40728
       H    13.62390  -11.96790   -2.67796
       O    12.69790  -11.57780   -2.68497
      H1    12.68140  -11.37378   -1.76347
       H     8.70489  -18.64966   -3.34853
       O     8.77630  -18.93412   -2.41516
      H1     9.05291  -19.84126   -2.55517
       H     6.78508  -13.59946   -7.37474
       O     6.55746  -14.56962   -7.71743
      H1     6.37917  -14.98163   -6.83315
       H    11.15902  -16.95085   -9.05787
       O    10.77883  -16.34286   -9.67008
      H1    10.20813  -15.81991   -9.01731
       H     3.67326  -15.42624   -4.01291
       O     3.13500  -16.11634   -4.45923
      H1     2.66660  -15.64951   -5.15525
       H     9.90684   -9.62843   -3.78324
       O     9.31103   -9.18118   -4.39344
      H1     8.56623   -9.68719   -4.02544
       H     9.38993  -13.91803   -1.91064
       O     8.89765  -13.35626   -1.35215
      H1     7.97370  -13.46888   -1.67705
       H    10.48162  -17.33536   -6.01782
       O    10.17336  -17.92379   -5.33400
      H1     9.65404  -18.65573   -5.69928
       H    14.41298  -15.49197   -4.96482
       O    14.22805  -14.64167   -5.45068
      H1    14.23655  -14.05045   -4.66958
       H    12.12858  -13.14669   -8.70787
       O    11.23772  -12.86177   -8.90979
      H1    10.63307  -13.54002   -8.57744
       H     9.13017  -10.00340   -1.35818
       O     9.91707  -10.41055   -1.71191
      H1     9.71870  -11.33688   -1.60875
       H     9.34485  -13.23190    2.01992
       O     9.90716  -13.68495    1.32428
      H1     9.39701  -13.49376    0.50022
       H    13.60512  -12.68876   -8.20138
       O    13.82304  -13.65108   -8.10885
      H1    13.73042  -13.84104   -7.15003
       H     5.88153  -11.00882   -4.26331
       O     6.79088  -10.72802   -4.17972
      H1     7.12068  -11.08337   -5.02104
       H    13.27513  -13.98031    0.09857
       O    13.32198  -14.88105   -0.23814
      H1    12.60369  -14.77050   -0.91208
       H     6.24873  -17.20569   -6.26289
       O     6.03849  -16.46325   -5.68682
      H1     5.16509  -16.73960   -5.35273
       H     4.78257  -19.37128   -3.67661
       O     5.16873  -18.99289   -4.51592
      H1     5.43194  -18.12500   -4.07419
       H     7.35683  -18.52026   -1.14872
       O     6.79606  -18.24862   -0.40237
      H1     6.24513  -19.05146   -0.23283
       H    10.07862  -18.66299   -1.24621
       O    10.90472  -18.43923   -0.76461
      H1    11.41940  -18.03750   -1.49840

