90
frame 3 | Written by MDAnalysis XYZWriter (release 2.4.3)
       H    -0.96369   14.73283   -2.05693
       O    -1.55005   14.49270   -1.32840
      H1    -1.60671   15.34944   -0.90045
       H    -3.32219   12.39539   -7.97559
       O    -2.74027   11.82465   -8.39500
      H1    -1.90670   12.18758   -8.01377
       H    -5.14048   16.69408   -5.07015
       O    -4.27576   16.43072   -4.65288
      H1    -4.58152   15.91648   -3.84201
       H    -0.98325   12.14504   -1.16332
       O    -0.23754   11.57326   -1.43441
      H1    -0.26818   11.55906   -2.36567
       H     0.45623    8.37382   -7.98914
       O     0.13360    8.13193   -7.08672
      H1     0.04698    8.98691   -6.67926
       H     4.11322   14.95127   -2.01563
       O     4.44797   15.82985   -2.27587
      H1     3.57114   16.19765   -2.56159
       H     0.82560   17.65057   -1.47118
       O     1.10207   18.11412   -0.65368
      H1     0.33233   18.73990   -0.45749
       H     3.87602   12.47023   -2.44363
       O     3.45869   13.21716   -2.88310
      H1     2.86317   12.69764   -3.47991
       H    -3.05690   13.95802   -0.98053
       O    -3.91749   13.58134   -0.65983
      H1    -3.72167   12.90914    0.06394
       H    -2.86430   16.87918    0.03414
       O    -1.89026   16.99967   -0.13562
      H1    -1.84462   17.25596   -1.09041
       H    -1.99224   15.99995   -5.60532
       O    -1.12821   16.38755   -5.29990
      H1    -1.07386   17.09364   -5.96112
       H    -6.09510   14.95421   -2.47346
       O    -5.45499   14.43547   -2.95555
      H1    -5.08432   13.88470   -2.25291
       H     1.24739   14.73676   -6.91854
       O     0.50092   15.33136   -7.24906
      H1     0.00462   15.53591   -6.44798
       H    -0.45964    9.15703   -0.79806
       O    -1.25124    8.55440   -0.74147
      H1    -1.17866    8.05392   -1.55132
       H     2.24587   13.52478   -1.72246
       O     1.58222   13.94304   -1.15822
      H1     1.22473   13.26437   -0.56921
       H     0.51276   13.92103   -2.57750
       O     0.15317   14.12339   -3.47418
      H1    -0.51022   13.37585   -3.60093
       H     0.02655   12.58086   -8.21471
       O    -0.45430   12.63759   -7.35044
      H1    -0.54481   13.66337   -7.43563
       H     2.58317   14.55045   -4.91311
       O     2.04919   13.75826   -5.24089
      H1     1.36130   13.83298   -4.53192
       H    -2.37013   13.12140   -4.45940
       O    -1.89380   12.53423   -3.85620
      H1    -2.59348   12.14818   -3.37187
       H    -3.09271   14.40324   -6.81064
       O    -2.97996   14.36437   -5.83920
      H1    -3.59048   15.06582   -5.59123
       H    -1.01821   18.49136   -2.99798
       O    -1.03218   17.57951   -2.62524
      H1    -1.11354   17.03447   -3.41487
       H    -3.13160    9.63218   -2.65974
       O    -3.01942   10.52694   -2.37301
      H1    -2.34856   10.40180   -1.70205
       H    -5.72030   11.34557   -1.08676
       O    -5.65452   11.23245   -2.03135
      H1    -4.65979   10.98863   -2.08578
       H    -5.46757   11.86293   -3.93561
       O    -5.21293   11.89137   -4.86272
      H1    -4.42327   12.44464   -4.80738
       H    -2.41933   12.35357    1.85699
       O    -2.05136   12.46223    0.95015
      H1    -1.61829   13.33222    0.95641
       H     1.26777   16.04530   -3.54043
       O     1.97090   16.62779   -3.21483
      H1     1.82613   17.42823   -3.77322
       H     4.18183   16.12616   -4.09258
       O     4.04488   15.77621   -4.99272
      H1     4.21390   16.49499   -5.61838
       H     0.86477   11.14979   -4.30553
       O     1.54612   11.22937   -3.61516
      H1     1.82972   10.27596   -3.52307
       H     2.40171   12.22142   -5.68622
       O     2.75531   11.58649   -6.35370
      H1     2.41837   10.81027   -5.98633
       H    -0.45362   11.33001   -6.10423
       O    -0.29674   10.53136   -5.52826
      H1    -1.05375   10.51383   -4.95466

