90
frame 3 | Written by MDAnalysis XYZWriter (release 2.4.3)
       H    -8.20556    1.38867    8.65534
       O    -7.70908    1.30574    9.49931
      H1    -8.38195    1.71376   10.13088
       H   -12.20300   -1.33569   16.04719
       O   -12.87941   -0.76990   16.49659
      H1   -12.52964    0.10339   16.12081
       H    -7.47316   -5.00586   15.54038
       O    -6.77157   -4.47868   15.10618
      H1    -7.19862   -3.63642   14.87819
       H   -10.68769    3.97361   14.03380
       O   -10.84242    4.51898   13.25404
      H1   -11.30414    5.25048   13.72213
       H   -10.09453    2.02757   15.73483
       O   -10.18581    2.96908   15.64392
      H1    -9.97598    3.27091   16.56180
       H   -12.71727   -0.79719   10.52369
       O   -11.94617   -0.93017    9.91777
      H1   -12.47387   -1.20559    9.17566
       H   -11.70220   -3.79850   15.13460
       O   -11.63122   -3.31208   15.93894
      H1   -12.24967   -3.91282   16.40697
       H   -14.12741    3.51851   14.89061
       O   -14.76506    3.92034   15.45580
      H1   -14.16953    4.20499   16.12502
       H   -10.05679   -1.90638   18.64776
       O   -10.59735   -2.25218   19.39670
      H1   -11.45376   -2.36946   18.94790
       H    -8.32849    3.29388   14.45620
       O    -7.80680    2.70020   13.88239
      H1    -7.36306    2.02830   14.39974
       H   -11.50080    0.03102   12.59751
       O   -11.32833   -0.81867   13.08547
      H1   -10.42376   -1.05552   12.76434
       H   -13.75898   -1.49901   18.38626
       O   -13.51025   -2.16984   18.99286
      H1   -13.36007   -1.60967   19.80828
       H    -9.46244   -3.06679   14.37038
       O    -8.98335   -2.50138   15.00334
      H1    -9.73120   -2.10397   15.47222
       H   -14.54460   -0.34006   14.01173
       O   -14.99169   -0.60358   14.78463
      H1   -14.22196   -0.66523   15.44515
       H    -8.66442    2.23543   12.45200
       O    -9.02511    2.42972   11.54155
      H1    -9.94415    2.13278   11.70120
       H    -5.50278   -1.88400   14.66763
       O    -6.12541   -1.60546   15.32002
      H1    -5.77889   -2.14382   16.08814
       H    -9.04765   -0.00778   15.54428
       O    -9.97258   -0.03066   15.78375
      H1   -10.41302   -0.27060   14.94025
       H   -14.87951   -3.36124   12.16656
       O   -14.39974   -2.82209   11.50736
      H1   -13.43823   -3.09325   11.58358
       H    -5.90830    1.14917   12.26102
       O    -6.56497    0.50093   11.95974
      H1    -6.93630    0.88559   11.15832
       H    -8.81354    0.33186   17.91530
       O    -8.89513    0.27442   18.86902
      H1    -8.17496   -0.35528   19.21707
       H   -11.54903   -2.60460   10.51340
       O   -11.67477   -3.51172   10.79110
      H1   -10.83140   -3.69497   11.30484
       H    -8.49562   -1.32820   13.49168
       O    -8.70189   -1.14254   12.56263
      H1    -7.97888   -0.50529   12.36670
       H    -7.39606    1.39094   18.83225
       O    -6.76734    1.96694   18.42978
      H1    -7.32773    2.78956   18.32440
       H   -14.53632    1.73896   12.18996
       O   -14.42926    2.67560   12.21874
      H1   -15.10933    2.93080   11.60329
       H   -12.42449    1.90851   11.40435
       O   -11.55345    1.84426   11.87752
      H1   -11.67699    2.69231   12.37623
       H    -6.99910    1.40478   16.73350
       O    -7.27976    0.91132   15.90810
      H1    -6.64635    0.13328   15.89522
       H   -13.13048   -0.64578   12.84446
       O   -13.90466   -0.34157   12.31193
      H1   -14.18605   -1.15840   11.85651
       H    -9.09655   -3.65530   12.54278
       O    -9.84109   -4.16843   12.92349
      H1    -9.40239   -5.00526   13.11007
       H   -10.63364   -4.09451   18.91524
       O   -10.65516   -4.96890   18.56174
      H1   -10.09802   -4.85099   17.80424
       H   -13.27078    2.04642   16.55396
       O   -12.83927    1.89311   15.69894
      H1   -12.01700    2.42428   15.84857

