90
frame 3 | Written by MDAnalysis XYZWriter (release 2.4.3)
       H    15.51002   16.87826   -1.79276
       O    15.57806   17.79830   -1.56394
      H1    16.52441   18.00854   -1.37993
       H    16.68079    9.97903   -5.96231
       O    16.72866   10.24762   -6.87848
      H1    15.78387   10.35655   -7.19025
       H     9.01477   15.45987   -4.25681
       O     9.83932   15.86357   -4.58118
      H1    10.01094   16.39540   -3.82733
       H    13.99472   16.90929   -5.43981
       O    14.36987   17.49607   -4.77815
      H1    13.80487   17.28248   -3.97807
       H    16.44840   17.07117   -6.13594
       O    16.24501   17.64752   -6.90889
      H1    17.06727   17.64237   -7.45637
       H    17.16467    8.52873   -3.90675
       O    16.42856    8.76426   -4.50102
      H1    15.68082    8.85349   -3.93632
       H    13.67307   14.66670   -0.98761
       O    12.74961   14.76263   -0.71159
      H1    12.45672   13.89971   -1.01689
       H    11.39787   12.07933   -2.32287
       O    11.75823   11.96745   -1.39300
      H1    11.03220   12.29911   -0.89091
       H    10.49720   13.97253   -6.87072
       O    11.10548   14.20622   -6.12901
      H1    10.53411   14.88117   -5.63822
       H    11.76198   15.92087   -9.73290
       O    11.79404   15.47527   -8.88113
      H1    11.83135   16.24494   -8.35879
       H    13.11065    9.82459   -3.37404
       O    13.52910    8.94659   -3.41699
      H1    13.29954    8.77738   -2.44595
       H    14.48507   12.00453    0.25597
       O    14.56310   11.64918   -0.64011
      H1    13.62696   11.19215   -0.68749
       H    11.13604   13.41182   -4.63835
       O    11.05702   12.66150   -3.99161
      H1    10.24628   12.25185   -4.28451
       H    16.17402   10.79479   -3.72807
       O    16.54972   11.14519   -2.88061
      H1    15.66168   11.27929   -2.36634
       H    17.55354   11.65875   -7.08567
       O    18.17261   12.27705   -7.46570
      H1    17.87488   13.18569   -7.28626
       H     8.98176   13.96544   -2.42862
       O     9.91788   14.07911   -2.07263
      H1    10.38763   13.93081   -2.91977
       H    17.16551   14.12090   -3.53788
       O    17.72405   13.77931   -2.83651
      H1    17.26975   12.94476   -2.64372
       H    12.96719   13.58230   -8.36909
       O    13.00204   12.63340   -8.38997
      H1    12.56310   12.39769   -9.20308
       H    18.07252   14.92830   -6.29757
       O    17.53264   14.74670   -7.05659
      H1    16.65411   14.76968   -6.66062
       H    19.85844   10.54898   -0.46035
       O    19.44048   11.24622   -1.07254
      H1    18.56283   10.88716   -1.15578
       H    14.70170   13.17852   -4.56697
       O    15.18581   13.98244   -4.71070
      H1    14.60886   14.44680   -5.36832
       H    16.27446   15.00933   -1.76672
       O    15.29609   15.21210   -1.94808
      H1    15.18358   14.80557   -2.84334
       H    12.65100   14.77700   -6.51194
       O    13.54459   15.21796   -6.46017
      H1    13.72846   15.30066   -7.41369
       H    13.72943   11.41350   -7.55778
       O    13.99663   10.58013   -7.07121
      H1    13.35164    9.96752   -7.52181
       H    12.86191   11.91881   -4.47217
       O    13.85332   11.72399   -4.49850
      H1    14.07821   11.33367   -5.37146
       H    18.41420   12.09456  -10.54507
       O    17.59316   12.20633  -10.01699
      H1    18.04641   12.17333   -9.09936
       H    12.64734   16.16273   -1.96055
       O    12.78504   16.97963   -2.46066
      H1    12.67038   17.68847   -1.76834
       H    19.01813   17.40573   -4.45793
       O    19.30054   18.32782   -4.52358
      H1    18.47577   18.82911   -4.66270
       H     9.74901   17.64786   -2.09550
       O    10.20642   17.99483   -2.89418
      H1    11.11038   17.66443   -2.72239
       H    15.96642   15.60745   -8.97341
       O    15.00410   15.81683   -8.78998
      H1    15.11005   16.50191   -8.08635

