90
frame 3 | Written by MDAnalysis XYZWriter (release 2.4.3)
       H     4.85170   11.90402   15.25775
       O     5.59310   11.24389   15.06376
      H1     6.28208   11.86612   14.78323
       H     1.07491   14.90512   16.53481
       O     1.35154   15.06601   17.42534
      H1     0.52861   14.99642   17.90306
       H     3.24006   17.64923   14.48588
       O     4.20926   17.68248   14.64772
      H1     4.33857   18.53240   14.20022
       H     4.47342   10.82382   17.44052
       O     5.08680   10.95508   18.14039
      H1     5.87896   11.02370   17.64291
       H     3.82726   12.50734   12.72837
       O     4.20763   13.31402   12.47002
      H1     4.78245   13.09968   11.73808
       H     0.31554   19.78136   19.76989
       O     0.34290   19.31418   18.88459
      H1     0.90426   18.57400   19.10716
       H     7.60027   14.30518   19.16892
       O     7.44580   15.08823   19.68803
      H1     8.22801   15.67226   19.55738
       H     9.96827   17.40829   16.67650
       O    10.45203   17.22908   17.46664
      H1    11.21991   17.82835   17.32741
       H    -0.70840   15.15654   15.52472
       O    -0.10145   15.38877   14.77761
      H1    -0.55297   14.93139   14.01890
       H     1.07496   16.61758   14.46914
       O     1.59191   17.44081   14.18110
      H1     1.73818   17.17952   13.24535
       H     8.76847   17.19620   14.32434
       O     9.52810   16.59881   14.33046
      H1    10.19336   17.21662   13.94673
       H    -1.96375   14.22614   17.64153
       O    -1.21037   14.04256   17.06539
      H1    -1.20295   13.18519   16.70998
       H    -0.47670   18.30627   13.46852
       O    -1.24820   18.50867   12.89669
      H1    -1.95104   18.58634   13.54277
       H     7.75911   14.13757   14.11702
       O     8.53873   14.09794   14.68816
      H1     8.91644   14.96386   14.60157
       H    -4.24163   14.13435   14.22833
       O    -4.04187   14.92793   13.68903
      H1    -4.08469   15.60390   14.36597
       H     1.00184   15.96426   11.35906
       O     0.86122   16.92066   11.66997
      H1    -0.13153   17.02148   11.69616
       H     2.17424   16.61051   18.49093
       O     2.18237   17.38808   19.04986
      H1     2.65277   18.14957   18.55215
       H     7.02208   18.25158   12.54560
       O     7.29394   17.97502   13.48186
      H1     6.48227   18.07476   14.02739
       H     4.08956   14.64160   19.40594
       O     4.02668   13.76634   19.01824
      H1     4.57839   13.81651   18.20768
       H     2.01925   13.89207   11.31750
       O     1.68074   14.43640   10.57847
      H1     1.03007   13.85219   10.17537
       H    -4.80797   14.90842   17.52018
       O    -4.03720   14.32170   17.61395
      H1    -4.46106   13.71050   18.29425
       H     5.56320   14.30385   15.98212
       O     5.58208   14.03348   16.95357
      H1     6.52889   13.92332   17.16231
       H    -1.89820   15.11432   11.53065
       O    -1.78315   14.89254   12.47930
      H1    -2.67489   14.99761   12.79702
       H     3.35238   18.52858   16.29869
       O     3.23341   19.12354   17.06545
      H1     2.81733   19.93600   16.67052
       H     2.46173   12.13397   15.99774
       O     3.30275   12.50783   15.72086
      H1     3.20821   13.40885   16.02512
       H     1.11016   11.50032   17.66202
       O     0.84173   12.18642   17.02980
      H1     1.06554   13.02031   17.45401
       H     4.92866   14.21812   13.79684
       O     5.67935   14.68956   14.19122
      H1     5.26674   15.53407   14.13410
       H    -2.26606   18.25704   17.97690
       O    -2.56354   17.35057   18.09825
      H1    -1.83016   16.97135   18.55973
       H    -3.49724   17.04746   16.64665
       O    -3.96894   16.81482   15.79212
      H1    -4.11475   17.66468   15.37052
       H     8.72857   13.57650   16.77843
       O     8.19521   13.40210   17.58861
      H1     8.34245   12.44753   17.77217

