90
frame 3 | Written by MDAnalysis XYZWriter (release 2.4.3)
       H    -6.63943    2.37438   -6.06264
       O    -6.72375    3.30790   -5.85225
      H1    -6.16118    3.66818   -6.54792
       H    -7.98529    0.64066   -8.94778
       O    -8.55428   -0.13552   -8.99361
      H1    -8.91954   -0.43312   -8.12272
       H    -5.66792   -2.08576   -9.81237
       O    -6.39769   -1.85839  -10.42129
      H1    -6.99786   -1.36761   -9.80096
       H   -12.21100    1.96604   -3.69457
       O   -12.14341    1.33977   -2.93325
      H1   -11.64658    0.56566   -3.32048
       H    -3.98856    4.07086   -3.41147
       O    -3.38999    4.84235   -3.43025
      H1    -3.25983    5.02119   -4.38624
       H    -2.58479    0.12269   -5.22442
       O    -2.24901   -0.50145   -4.53948
      H1    -1.37387   -0.13007   -4.35950
       H    -3.70266   -0.66241   -3.42006
       O    -4.11445   -0.63369   -2.53265
      H1    -3.48931   -0.10569   -2.00328
       H    -5.89936    3.73357   -2.84084
       O    -5.54907    2.97127   -3.37274
      H1    -5.81499    3.10658   -4.31943
       H    -7.25032    4.54212   -1.18971
       O    -6.25008    4.76982   -1.38551
      H1    -6.26413    5.77539   -1.30852
       H    -7.18422   -2.71219    0.62975
       O    -6.61212   -1.97119    0.47391
      H1    -6.26072   -2.34532   -0.34591
       H   -10.96534   -2.33541   -3.53353
       O   -10.23581   -1.93708   -4.06550
      H1    -9.38685   -2.22438   -3.71066
       H    -3.26593   -1.72493   -5.11838
       O    -3.79812   -2.52043   -5.31079
      H1    -4.59726   -2.09483   -5.73527
       H    -7.55558   -0.31565   -2.77808
       O    -7.49560   -1.07466   -3.42233
      H1    -6.80621   -1.59478   -2.95853
       H   -12.29131    4.21744   -5.05853
       O   -11.71723    3.47304   -4.77662
      H1   -10.84901    3.92857   -4.89684
       H    -9.99210   -1.07897   -5.98049
       O   -10.28423   -0.78954   -6.85178
      H1   -10.24733    0.19413   -6.96470
       H   -12.46029   -3.07731   -6.08423
       O   -12.62466   -2.11507   -6.26545
      H1   -11.72965   -1.72016   -6.20140
       H    -6.75198    1.67712   -2.52385
       O    -7.39576    1.11995   -2.04121
      H1    -6.87681    0.87307   -1.24917
       H    -3.70755    1.04235   -7.43010
       O    -3.64880    0.95060   -6.45456
      H1    -4.53646    0.69787   -6.18730
       H    -9.71438    2.93100   -8.56409
       O    -9.61203    3.23834   -9.48319
      H1   -10.01101    2.51101   -9.98946
       H    -5.09537   -2.10571   -2.40826
       O    -5.80895   -2.83325   -2.23762
      H1    -5.49011   -3.43066   -2.91964
       H    -8.40867    2.57345   -1.27718
       O    -8.54183    3.49052   -0.93892
      H1    -8.96545    3.96224   -1.66994
       H    -3.27381   -4.24704   -2.74258
       O    -3.96681   -4.65218   -3.27533
      H1    -3.93700   -4.08214   -4.05460
       H   -10.11071    2.62767   -6.34188
       O   -10.46187    1.99833   -7.02601
      H1   -11.40095    2.04617   -6.80974
       H    -6.47930    2.92489   -9.03614
       O    -7.18195    2.28129   -8.90292
      H1    -7.97136    2.75331   -9.20547
       H    -9.27290   -3.17781   -5.41548
       O    -8.44689   -3.16300   -5.83365
      H1    -8.57823   -3.77766   -6.60605
       H    -5.39784    0.95232    0.76683
       O    -6.29141    0.85457    0.48778
      H1    -6.77430    1.29498    1.16729
       H    -8.22169   -5.50272   -3.43749
       O    -7.69967   -5.63214   -4.25418
      H1    -8.05887   -4.96596   -4.89187
       H    -6.23004   -0.35816   -6.01204
       O    -6.26405    0.52261   -5.57544
      H1    -6.73005    0.23447   -4.70825
       H    -8.34350    3.84729   -5.41896
       O    -9.31512    4.02669   -5.66053
      H1    -9.23977    4.97703   -5.46418
       H    -6.00558   -2.41595   -7.46677
       O    -6.14670   -1.81648   -6.70451
      H1    -7.01161   -2.11349   -6.31543

