90
frame 3 | Written by MDAnalysis XYZWriter (release 2.4.3)
       H     7.47299   16.31821    2.84013
       O     7.05012   15.44926    3.05131
      H1     7.83139   14.95741    3.47486
       H    12.11626   14.51904    1.04253
       O    11.68644   14.52682    1.92918
      H1    11.71597   15.52222    2.18585
       H     7.01267   14.20093   -1.87116
       O     7.24717   13.27737   -2.09099
      H1     6.77811   12.97550   -2.91586
       H    12.49256   17.57899    2.23130
       O    11.74816   17.15070    2.69488
      H1    12.17392   17.11614    3.58103
       H     7.71365   13.39477    0.69866
       O     7.68422   12.44329    1.00045
      H1     7.38948   12.58421    1.94097
       H    15.04272   18.22600   -0.02462
       O    14.57904   18.50931    0.74749
      H1    15.01888   19.34935    1.09578
       H     6.91522   17.89120    5.62157
       O     6.58796   18.45876    4.89015
      H1     7.31272   18.69249    4.34769
       H    13.67307   14.66670   -0.98761
       O    12.74961   14.76263   -0.71159
      H1    12.45672   13.89971   -1.01689
       H     3.97136   18.99744    3.68919
       O     3.63736   19.34661    4.59081
      H1     4.50392   19.35253    5.09097
       H    11.69207   19.14855   -0.63085
       O    12.12296   18.34773   -0.30456
      H1    13.01425   18.71423   -0.15153
       H    11.97697   16.79563    5.54854
       O    12.65229   17.45792    5.30416
      H1    12.29840   18.21776    5.76784
       H     9.67299   15.60093   -1.20741
       O     9.59109   16.48526   -0.79893
      H1    10.51578   16.61637   -0.71476
       H     8.26765   13.63866    5.12185
       O     8.94780   13.76841    4.39100
      H1     9.58599   14.34474    4.88351
       H     2.17813   19.15740    0.62810
       O     2.58851   19.37969    1.47645
      H1     3.51363   19.41994    1.22878
       H     5.06748   18.25277    1.39106
       O     5.24308   18.90401    2.15581
      H1     6.02225   19.48399    1.87941
       H     8.56728   14.48108    8.42222
       O     8.87871   15.41992    8.35119
      H1     8.18726   15.82351    7.75194
       H    10.04063   17.76015    2.43590
       O     9.11718   18.01818    2.25680
      H1     9.06814   18.94011    1.90079
       H     8.98176   13.96544   -2.42862
       O     9.91788   14.07911   -2.07263
      H1    10.38763   13.93081   -2.91977
       H     6.72396   17.52966    7.82674
       O     6.63503   16.84881    7.13381
      H1     5.81920   16.34564    7.40691
       H     6.29700   16.09258   -2.70477
       O     7.23683   15.97685   -2.99210
      H1     7.17978   16.77247   -3.63308
       H    10.19211   15.25184    7.05613
       O    10.63398   15.28333    6.16779
      H1    11.34805   14.67758    6.42712
       H     4.78473   16.81230   -0.98994
       O     4.71880   17.10618   -0.06007
      H1     5.53444   16.60839    0.15258
       H     9.40327   12.44181    0.94446
       O    10.34464   12.33251    1.02543
      H1    10.62164   13.25849    1.32931
       H    14.11212   16.72582    5.81477
       O    15.00991   16.31567    5.81097
      H1    14.90193   15.49781    5.23606
       H     7.17337   15.18107    1.35658
       O     7.23378   15.45127    0.40833
      H1     8.16998   15.83881    0.29546
       H     3.50250   15.64613    4.65738
       O     4.17868   15.06477    4.22722
      H1     4.76378   15.69106    3.78303
       H    12.82806   13.80999    4.71525
       O    13.44491   14.31929    4.12289
      H1    12.93385   14.39314    3.29244
       H    12.64734   16.16273   -1.96055
       O    12.78504   16.97963   -2.46066
      H1    12.67038   17.68847   -1.76834
       H     9.74901   17.64786   -2.09550
       O    10.20642   17.99483   -2.89418
      H1    11.11038   17.66443   -2.72239
       H     7.06957   19.32669   -1.43834
       O     6.25580   19.69046   -0.99485
      H1     5.71062   18.91293   -0.78597

