90
frame 3 | Written by MDAnalysis XYZWriter (release 2.4.3)
       H    -3.47021   -6.05969    4.49058
       O    -4.37366   -6.41257    4.28787
      H1    -4.75053   -6.29012    5.18794
       H    -8.37850  -11.53136    8.14068
       O    -8.07607  -12.16004    8.85047
      H1    -8.57092  -11.85577    9.61503
       H    -1.75248  -14.91874    2.09620
       O    -2.11355  -14.04275    1.84054
      H1    -2.54863  -13.79968    2.68879
       H     1.13727   -9.98016    9.75968
       O     0.67777   -9.24101   10.18705
      H1     0.02009   -9.69293   10.67293
       H     2.16259  -14.07882    7.34891
       O     1.21004  -14.02975    7.30778
      H1     1.03151  -14.26128    6.36506
       H    -3.64814  -11.54565    7.48475
       O    -3.52601  -11.06311    6.59872
      H1    -2.84187  -10.37999    6.79356
       H    -1.40730  -15.46491    8.22223
       O    -1.01586  -15.80475    7.41158
      H1    -0.19487  -15.27379    7.51393
       H    -7.47208  -10.46828    3.00527
       O    -6.96827  -11.26767    3.26445
      H1    -6.78937  -11.06071    4.15717
       H    -0.95423   -9.61390    5.55396
       O    -1.58560   -9.52076    4.84843
      H1    -1.33586   -8.60743    4.54063
       H    -1.49509  -12.32394    3.83187
       O    -1.01030  -11.60931    3.31802
      H1    -1.20823  -10.84882    3.93028
       H    -1.00586   -5.91911    6.62557
       O    -1.62148   -6.50092    7.08381
      H1    -2.51127   -6.29533    6.69945
       H    -6.82727   -7.85505    7.00214
       O    -7.75764   -7.66408    6.79571
      H1    -8.24568   -7.53340    7.60627
       H    -4.48489   -9.04987    8.48063
       O    -5.47517   -8.92306    8.39600
      H1    -5.76089   -9.68822    8.86181
       H    -2.32177  -11.23557   12.24998
       O    -2.65747  -11.34857   11.36469
      H1    -3.09366  -10.49257   11.28899
       H    -2.43790   -9.34345    9.13781
       O    -3.13157   -9.23831    9.79299
      H1    -2.67658   -8.52041   10.24055
       H    -1.06766  -10.56670    8.12634
       O    -1.36950   -9.74935    7.76714
      H1    -0.55995   -9.24538    7.75631
       H    -3.56571  -13.34683    9.07532
       O    -4.31365  -12.80518    8.76494
      H1    -4.79014  -13.34646    8.12502
       H    -1.59106  -14.05529   10.42759
       O    -1.85182  -13.29613    9.87503
      H1    -2.20476  -12.67513   10.52851
       H    -7.25143  -13.47364    7.66740
       O    -6.62273  -14.17733    7.38824
      H1    -7.24350  -14.92125    7.27279
       H    -0.85427  -14.38535    4.51155
       O    -0.38225  -13.68291    4.93047
      H1    -0.01417  -13.27001    4.10353
       H    -5.35710  -16.25139    5.80197
       O    -5.36286  -16.59031    4.93953
      H1    -6.24840  -16.94351    4.84445
       H    -8.50708  -12.64049    5.87102
       O    -9.30373  -12.87067    5.38872
      H1    -9.11814  -13.77010    5.04523
       H    -2.62174  -15.02801    6.37197
       O    -3.58023  -14.76499    6.60143
      H1    -3.66314  -13.91942    6.12821
       H    -5.30788   -5.81387    7.75497
       O    -5.45293   -5.42981    6.88626
      H1    -6.23684   -4.90891    7.01452
       H    -5.45946  -10.53823    5.58754
       O    -6.35218  -10.46900    5.95610
      H1    -6.14423   -9.88431    6.70207
       H    -0.44513  -12.42342    9.23777
       O     0.20271  -11.85882    8.75180
      H1     0.42174  -12.42324    7.99630
       H    -3.47482  -12.01627    4.71801
       O    -3.56942  -12.85965    4.21473
      H1    -4.09872  -12.57348    3.47544
       H    -4.97132   -7.29594    9.37039
       O    -5.28711   -6.42489    9.69844
      H1    -4.86789   -6.24947   10.52472
       H    -1.62046  -16.55376    4.21980
       O    -1.87032  -15.62425    3.94992
      H1    -2.68770  -15.53151    4.47874
       H    -5.12704  -12.02408   10.23250
       O    -5.81938  -11.60934   10.71644
      H1    -5.56076  -11.46076   11.66044

