90
frame 3 | Written by MDAnalysis XYZWriter (release 2.4.3)
       H   -12.31077   10.27682  -18.94315
       O   -12.79800   10.57500  -19.70403
      H1   -13.72365   10.30738  -19.62691
       H   -18.05411   16.33814  -17.25808
       O   -17.10395   16.30053  -17.48393
      H1   -16.98543   16.71601  -18.37917
       H    -4.23938   17.09197  -19.98559
       O    -5.09497   16.86888  -19.62096
      H1    -5.02858   17.18501  -18.68610
       H    -8.79242   18.88476  -19.04999
       O    -9.27035   19.58121  -19.58474
      H1   -10.25101   19.26692  -19.50553
       H    -8.66855   13.41190  -14.64936
       O    -9.33712   12.96705  -15.23744
      H1    -9.97471   12.60712  -14.60605
       H   -15.95389   14.67885  -13.24607
       O   -15.70799   15.33063  -12.56478
      H1   -16.52234   15.25567  -11.98709
       H    -3.92863   18.28575  -17.16269
       O    -4.74525   17.74837  -16.92844
      H1    -5.31054   18.42405  -16.51116
       H   -14.03143   15.89582  -12.00297
       O   -13.34125   16.52501  -11.85645
      H1   -13.53128   17.20619  -12.51452
       H   -13.33855   18.53153  -15.33681
       O   -13.24973   18.51600  -16.29572
      H1   -12.42441   18.02381  -16.40256
       H   -12.64781   19.43692  -13.32991
       O   -12.78197   18.57051  -13.74167
      H1   -11.89655   18.13905  -13.58769
       H    -8.23787   10.12897  -16.53090
       O    -8.18815   10.99360  -16.95455
      H1    -8.62122   11.56948  -16.30729
       H   -10.68764    9.28280  -18.09493
       O   -10.95328    9.86423  -17.33722
      H1   -10.30586   10.58789  -17.43649
       H   -16.67349   13.43947  -16.81915
       O   -17.12329   13.05814  -17.61621
      H1   -17.62045   12.27469  -17.30783
       H   -10.00636   14.79212  -12.32417
       O    -9.15755   14.52764  -11.93134
      H1    -9.05945   15.27153  -11.32072
       H   -13.10975   14.41004  -18.73850
       O   -12.75287   15.18665  -18.28725
      H1   -13.34359   15.20602  -17.50285
       H    -7.70417   19.74235  -15.25797
       O    -6.89568   19.17486  -15.52805
      H1    -6.98217   18.48595  -14.82803
       H    -7.90375   14.44908  -13.34854
       O    -7.39858   14.32026  -14.15498
      H1    -7.16521   15.22394  -14.30960
       H   -15.10161   18.93416  -17.05410
       O   -16.03275   18.86946  -17.36507
      H1   -16.10376   17.87068  -17.21227
       H   -11.01505   16.05016  -17.10075
       O   -11.02118   17.01221  -16.89793
      H1   -10.08653   17.26124  -16.72899
       H    -7.67224   18.40432  -16.86821
       O    -8.35365   18.00975  -17.49976
      H1    -8.28730   17.05211  -17.35610
       H   -11.19091   15.52823  -13.75273
       O   -11.52850   14.95927  -13.02579
      H1   -12.20760   15.55145  -12.60626
       H   -12.23581   11.94833  -14.19184
       O   -11.49863   12.10023  -13.59272
      H1   -11.57787   13.00707  -13.27285
       H   -13.26395   10.84221  -16.08236
       O   -13.51307   11.74614  -16.25470
      H1   -12.99778   11.88342  -17.10171
       H    -7.99582   15.04391  -15.77158
       O    -8.06452   15.32256  -16.66893
      H1    -7.24954   15.01286  -17.09820
       H    -8.28130   10.95526  -18.66395
       O    -8.13241   11.35389  -19.56411
      H1    -8.91463   12.02002  -19.52997
       H    -9.49288   18.53577  -12.58749
       O   -10.19202   17.85843  -12.66440
      H1   -10.31831   17.65609  -11.72555
       H   -10.50859   13.06331  -16.71272
       O   -11.07493   12.95084  -17.45660
      H1   -10.61712   13.41829  -18.16528
       H    -7.20278   17.20940  -13.13179
       O    -7.65861   17.19168  -13.96946
      H1    -8.58618   17.25756  -13.67899
       H    -5.19775   15.86157  -17.25015
       O    -5.47273   14.93093  -17.26676
      H1    -4.79402   14.53273  -17.91103
       H   -16.91972   14.21059  -14.98563
       O   -16.22014   14.52090  -15.55876
      H1   -16.63307   15.00684  -16.26539

