90
frame 3 | Written by MDAnalysis XYZWriter (release 2.4.3)
       H     6.22426    4.59219   17.47932
       O     5.89776    5.51725   17.35376
      H1     5.57603    5.71572   18.22209
       H     4.85170   11.90402   15.25775
       O     5.59310   11.24389   15.06376
      H1     6.28208   11.86612   14.78323
       H    14.95649    9.36980   18.16743
       O    15.30986    9.79789   18.98134
      H1    16.20659   10.20173   18.58821
       H    12.58890   14.28037   17.63657
       O    13.26344   14.13656   18.25067
      H1    13.58439   15.09214   18.28583
       H     8.38806    9.81567   18.52516
       O     8.12147   10.70150   18.71031
      H1     7.96090   10.71482   19.67226
       H     4.47342   10.82382   17.44052
       O     5.08680   10.95508   18.14039
      H1     5.87896   11.02370   17.64291
       H    10.79890    7.45052   13.42980
       O     9.79380    7.57372   13.44395
      H1     9.59132    8.10225   12.66931
       H     7.60027   14.30518   19.16892
       O     7.44580   15.08823   19.68803
      H1     8.22801   15.67226   19.55738
       H    13.36646    7.77749   19.33628
       O    13.60763    7.40853   18.44019
      H1    14.17624    6.73604   18.81189
       H    13.75255    8.50706   17.32927
       O    14.13334    9.10391   16.59661
      H1    13.45753    9.82922   16.67109
       H    14.41902    9.98133   14.39845
       O    14.53565   10.17192   13.44125
      H1    15.17917    9.46348   13.17912
       H     8.90112   11.01738   13.48494
       O     8.52097   11.46184   14.27935
      H1     8.56386   12.41787   14.04586
       H    14.54019    6.23995   15.40941
       O    13.72435    5.91123   15.84693
      H1    13.68805    6.53511   16.57149
       H    13.17708    7.95966   13.74651
       O    12.45486    7.50075   13.29265
      H1    12.45793    8.00723   12.46743
       H     9.75731   11.21431   15.45439
       O    10.22769   11.02431   16.24062
      H1     9.78665   10.27588   16.70319
       H     7.27052    2.48388   16.55654
       O     7.24826    3.11792   17.28244
      H1     8.13054    3.08059   17.61092
       H    13.04009   12.17876   16.00611
       O    12.99257   11.20894   15.96230
      H1    12.05780   11.22546   15.97099
       H    13.10179   12.02216   18.70422
       O    12.96128   11.09583   19.04493
      H1    13.88794   10.79460   19.02311
       H    10.71168   15.48572   17.22663
       O    10.91007   14.57253   17.01467
      H1    10.21790   14.13182   17.52806
       H     8.80389    8.39536   14.84302
       O     8.14978    8.81746   15.46450
      H1     8.18248    9.81215   15.35845
       H    11.39093    5.32312   15.21007
       O    10.75691    4.66610   15.50731
      H1     9.94848    5.14744   15.66834
       H     5.56320   14.30385   15.98212
       O     5.58208   14.03348   16.95357
      H1     6.52889   13.92332   17.16231
       H    11.35067    3.91482   18.05422
       O    12.11642    3.48179   17.53465
      H1    11.85836    3.86571   16.63485
       H     5.06796    9.53561   19.04618
       O     5.10656    8.85143   19.76046
      H1     6.05547    8.66939   19.88661
       H     9.40935    4.86883   19.42586
       O     8.77489    4.09953   19.53724
      H1     9.46469    3.39947   19.57694
       H     9.93413   11.36044   19.04759
       O    10.44889   11.58417   19.83742
      H1    11.34477   11.63329   19.50126
       H     8.33292    6.85154   15.50558
       O     8.16710    5.96744   15.80681
      H1     7.55378    5.99923   16.54296
       H     8.72857   13.57650   16.77843
       O     8.19521   13.40210   17.58861
      H1     8.34245   12.44753   17.77217
       H    10.28641    8.58470   19.07449
       O     9.95029    8.94165   18.24448
      H1     9.87759    8.19085   17.69354
       H    11.40573    5.88072   20.00249
       O    11.01259    5.89560   19.11669
      H1    11.91959    5.98067   18.66477

