90
frame 3 | Written by MDAnalysis XYZWriter (release 2.4.3)
       H    -0.11849   17.07079  -13.20519
       O     0.22125   17.75255  -12.62423
      H1     0.77205   18.31108  -13.30920
       H     3.85238   15.93419  -17.45336
       O     4.01989   16.16158  -18.37480
      H1     3.28548   16.61913  -18.75903
       H    -3.81461   17.39304  -12.18037
       O    -4.38435   17.74171  -12.84627
      H1    -4.28745   16.98107  -13.47661
       H     7.99322   16.03856  -15.81169
       O     8.75358   16.37274  -15.21693
      H1     8.59257   17.27930  -14.93679
       H    -1.68610   16.09930  -14.79124
       O    -0.72154   15.95806  -14.88752
      H1    -0.51564   15.25698  -14.28572
       H     1.97078   16.29251  -10.83533
       O     2.19064   17.20741  -10.83497
      H1     1.44346   17.40315  -11.48829
       H    -1.34907   18.55847  -17.67204
       O    -2.19131   18.97513  -17.77346
      H1    -2.19162   19.59245  -17.00171
       H     1.66920   12.59411  -14.39430
       O     1.09612   13.31305  -14.62370
      H1     1.25139   13.36186  -15.55021
       H     7.91432   18.89685  -17.71176
       O     8.34367   19.77641  -17.44902
      H1     9.11899   19.78308  -18.04362
       H     3.55775   17.55803  -16.76837
       O     3.10342   18.40787  -16.87093
      H1     2.17792   18.14484  -17.05572
       H     5.29694   17.04870   -6.79737
       O     4.52823   17.70370   -6.69355
      H1     3.82344   17.33639   -7.33137
       H     9.23406   19.10630  -14.22182
       O     8.37582   19.11261  -14.69195
      H1     8.56470   19.45518  -15.58216
       H     0.60208   14.68688  -18.07254
       O     0.07745   15.23065  -18.67868
      H1    -0.74510   14.98928  -18.30266
       H     0.63034   14.39030  -11.65265
       O     1.33672   14.62929  -12.22080
      H1     1.05555   14.07621  -12.99247
       H    -1.76337   17.17771  -10.98831
       O    -2.58828   16.72708  -11.16959
      H1    -2.94470   16.63102  -10.24416
       H     6.43408   17.79062  -19.41000
       O     6.04094   18.65999  -19.14229
      H1     5.17237   18.29543  -19.05275
       H     2.66702   19.33358  -14.97450
       O     2.29367   18.95185  -14.12159
      H1     2.61737   19.55910  -13.44174
       H     7.67475   16.09604  -13.59429
       O     7.91961   16.24136  -12.64363
      H1     7.31023   15.69870  -12.13121
       H     4.10864   13.39428  -15.27383
       O     3.82913   14.01490  -15.95328
      H1     4.32028   14.82052  -15.67961
       H     5.39142   17.23703  -15.60815
       O     4.64481   16.71684  -15.24043
      H1     4.03171   17.39249  -15.01757
       H     5.96140   18.51094  -10.27311
       O     6.59631   18.96498   -9.78364
      H1     6.67426   19.81674  -10.25764
       H     6.12284   14.24852  -12.50298
       O     6.08277   14.42381  -11.55350
      H1     5.75628   15.30190  -11.62233
       H     9.09429   18.11083  -11.75177
       O     9.49792   18.96716  -11.86069
      H1     8.77205   19.52203  -12.15338
       H     2.83706   13.63207  -11.37482
       O     3.60416   13.10454  -11.19507
      H1     4.24811   13.82421  -11.21973
       H    -1.96593   13.69317  -17.22927
       O    -2.15217   14.60525  -17.00519
      H1    -1.47964   14.80188  -16.35753
       H     6.88766   15.15233  -17.67724
       O     6.76869   15.19292  -16.67988
      H1     6.98200   14.28212  -16.44859
       H     3.97576   17.33306  -11.56769
       O     4.89046   17.39970  -11.76697
      H1     4.90079   17.96570  -12.52868
       H     0.71421   17.08557  -18.04957
       O     0.57555   17.67299  -17.28328
      H1     0.34157   17.13086  -16.48522
       H    -0.82942   19.39183   -7.64548
       O    -0.47289   18.67625   -7.11385
      H1     0.30998   18.48135   -7.61562
       H     1.65921   16.94449   -7.55979
       O     2.22881   17.59429   -8.00247
      H1     2.02194   17.49507   -8.99167

