90
frame 3 | Written by MDAnalysis XYZWriter (release 2.4.3)
       H     8.51616   -9.12821   -2.14329
       O     8.15760   -9.16065   -1.22138
      H1     7.20610   -9.35440   -1.26785
       H    12.26421   -7.57239    2.72786
       O    12.73738   -7.98237    3.48707
      H1    13.49249   -8.35151    3.07993
       H     7.97257  -12.97467    3.25119
       O     8.95392  -12.88247    3.15597
      H1     9.06262  -11.87802    3.22236
       H     6.57788   -4.10587    2.45212
       O     5.84858   -3.96624    1.82512
      H1     6.18847   -3.38532    1.12827
       H     9.09381   -9.81866    4.27731
       O     8.65068  -10.17889    3.51658
      H1     7.70289  -10.12784    3.78772
       H     7.01571  -10.23890    7.39336
       O     6.10643  -10.37037    6.92011
      H1     6.44997  -10.94201    6.21260
       H    11.62881   -7.23335   -0.36789
       O    12.02101   -7.47752   -1.19959
      H1    12.87390   -7.82751   -0.87212
       H    11.92577   -3.85708    0.36307
       O    11.56828   -3.91221    1.27185
      H1    11.07230   -3.09502    1.37980
       H     4.67662   -3.18264    2.96068
       O     4.01928   -2.71540    3.53085
      H1     3.36251   -3.41818    3.76513
       H     3.68876   -2.78311   -0.60792
       O     3.20440   -3.61737   -0.51183
      H1     3.80922   -4.09336    0.08875
       H     4.79837   -9.34745    6.12236
       O     4.02677   -8.91789    5.78968
      H1     3.36389   -9.55541    5.60789
       H     8.53847   -4.96657    3.59983
       O     7.56866   -5.06039    3.70136
      H1     7.73679   -5.75142    4.36582
       H    13.69064   -5.57699    4.47005
       O    13.08242   -5.99610    5.09854
      H1    12.63811   -6.55782    4.44385
       H     6.62293   -2.76040    5.77573
       O     7.49189   -2.68509    5.26448
      H1     7.55509   -3.58152    4.84185
       H     9.90252   -6.99296   -1.15041
       O     9.48929   -6.57952   -0.40145
      H1     8.56317   -6.90412   -0.52076
       H     3.40494   -7.62972    0.33206
       O     3.66579   -8.34014    0.96562
      H1     3.99146   -7.80861    1.68241
       H     6.56505   -6.65567    0.74964
       O     6.39137   -6.15833   -0.08577
      H1     6.01244   -5.32577    0.20564
       H    10.00037   -7.92115    5.65622
       O     9.78905   -8.88098    5.72953
      H1    10.73341   -9.10782    5.88870
       H     5.84393   -6.12073   -3.02526
       O     5.20371   -6.53700   -2.37167
      H1     5.68532   -6.36830   -1.54679
       H     5.92729  -11.66644    3.28563
       O     5.38077  -10.91851    3.42756
      H1     5.43096  -10.53774    2.50691
       H     8.98941   -4.26091   -1.28226
       O     8.51973   -3.44842   -1.55075
      H1     9.34502   -2.88373   -1.52062
       H     8.45497  -11.28653    7.11943
       O     8.64473  -10.52612    7.72463
      H1     8.85156   -9.79025    7.12904
       H     6.35718   -2.00173   -0.42153
       O     6.13080   -2.89631   -0.73147
      H1     7.04324   -3.30285   -0.89306
       H     9.60685   -1.92434    7.15880
       O     9.24855   -2.83084    7.23691
      H1     8.73789   -3.06327    6.41341
       H     4.45235   -6.33467    3.63004
       O     4.75522   -7.23179    3.45386
      H1     4.56525   -7.83195    4.18702
       H     6.50733   -9.38402    1.01051
       O     6.18482  -10.23714    0.68022
      H1     5.40534   -9.91063    0.26041
       H    11.13484   -5.43142    1.37261
       O    11.24367   -6.43056    1.51242
      H1    10.43134   -6.73353    1.08807
       H     6.36829   -7.50332    2.50180
       O     7.21737   -7.53505    2.04399
      H1     7.69041   -6.88874    2.52811
       H     8.56635   -6.05532    6.96498
       O     8.91663   -6.02019    6.01286
      H1     9.82356   -5.70098    6.16727
       H    10.77078   -4.86119    3.12163
       O    10.11467   -4.48956    3.74912
      H1    10.70638   -3.79602    4.07937

