90
frame 3 | Written by MDAnalysis XYZWriter (release 2.4.3)
       H    -1.03980    1.49666   14.06053
       O    -1.35277    2.34032   14.43826
      H1    -1.39386    2.84417   13.62204
       H    -3.49258   -1.38364    9.87971
       O    -3.91441   -2.05627    9.34836
      H1    -3.18472   -2.60907    9.01711
       H     0.48364    2.81588   16.86061
       O    -0.44349    2.73046   17.13817
      H1    -0.78341    2.10532   16.47575
       H     2.64733   -0.26055   14.78946
       O     3.38913    0.39641   14.69405
      H1     2.95103    1.23751   15.05862
       H    -1.87187    0.29508   16.75387
       O    -1.18390   -0.32997   16.49768
      H1    -0.48007   -0.20347   17.22524
       H    -2.07929   -4.61553   11.70542
       O    -1.59049   -3.96580   11.14473
      H1    -1.22251   -4.61094   10.46649
       H    -3.68788   -3.61971   12.50765
       O    -4.07583   -2.78745   12.18575
      H1    -3.72036   -2.68069   11.24224
       H     0.13323   -0.36164    8.32995
       O    -0.62371   -0.94215    8.56842
      H1    -0.90016   -0.52501    9.34292
       H     0.94577    0.16355   10.39755
       O     1.72503   -0.29605   10.69481
      H1     1.55711   -1.13741   10.25430
       H    -4.03826    2.86061   12.83239
       O    -4.43715    2.10880   12.46525
      H1    -4.07592    1.34032   12.95030
       H    -8.32849    3.29388   14.45620
       O    -7.80680    2.70020   13.88239
      H1    -7.36306    2.02830   14.39974
       H    -2.45358   -1.63835   17.31456
       O    -3.01080   -2.46267   17.28979
      H1    -2.38418   -3.11206   16.88984
       H    -6.12892   -3.51416   18.12434
       O    -5.84349   -2.61791   17.89573
      H1    -4.88648   -2.61360   17.84085
       H     0.74092   -3.21793   13.43905
       O    -0.23371   -3.40158   13.42350
      H1    -0.50038   -3.24051   12.52577
       H    -5.50278   -1.88400   14.66763
       O    -6.12541   -1.60546   15.32002
      H1    -5.77889   -2.14382   16.08814
       H     2.74779   -2.48143   12.95964
       O     2.14146   -1.79203   13.22672
      H1     1.89850   -1.44056   12.40463
       H    -0.05576   -1.08179   13.71955
       O    -0.36911   -0.18144   13.95195
      H1    -0.60188   -0.28996   14.93928
       H    -2.10332   -3.46037   19.93387
       O    -1.71325   -2.61713   19.66495
      H1    -2.18224   -2.57897   18.83501
       H    -5.90830    1.14917   12.26102
       O    -6.56497    0.50093   11.95974
      H1    -6.93630    0.88559   11.15832
       H    -0.69547   -3.47702   15.22125
       O    -0.71188   -3.57962   16.19024
      H1     0.20002   -3.34786   16.40251
       H     0.36834   -5.89960   14.54228
       O    -0.48010   -5.94171   14.06836
      H1    -0.46185   -5.03962   13.71570
       H    -3.84175    0.48592   15.63815
       O    -3.52863    1.18843   16.25568
      H1    -3.78698    1.96014   15.74968
       H    -0.08953    1.97283   12.01063
       O    -0.44173    1.45955   11.26532
      H1    -0.82492    2.11323   10.70978
       H    -2.80328    0.09075   11.20744
       O    -2.31302   -0.78770   11.25249
      H1    -1.57826   -0.46280   11.81209
       H    -2.66011   -0.54964   13.88310
       O    -3.59882   -0.24317   13.83189
      H1    -3.85008   -0.97543   13.26617
       H    -6.99910    1.40478   16.73350
       O    -7.27976    0.91132   15.90810
      H1    -6.64635    0.13328   15.89522
       H    -3.27731   -5.30572   13.95232
       O    -3.23830   -5.40910   12.97703
      H1    -4.23721   -5.36165   12.72316
       H     2.17941    2.41118   12.87629
       O     1.26516    2.76347   12.88004
      H1     1.27623    3.22365   13.76010
       H    -2.95520    1.89786    9.51968
       O    -3.66915    1.23665    9.66262
      H1    -4.37321    1.80865    9.96484
       H    -4.11685   -5.67963   16.65133
       O    -4.12160   -5.22580   15.74162
      H1    -5.01246   -4.85697   15.63192

