90
frame 3 | Written by MDAnalysis XYZWriter (release 2.4.3)
       H   -14.88999   14.59084    5.87318
       O   -13.88322   14.59990    5.83955
      H1   -13.62197   14.99311    4.95232
       H   -14.30249   16.55976    9.71136
       O   -14.82398   17.35273    9.49884
      H1   -14.54138   17.58908    8.58616
       H    -5.89816   17.31449    6.15905
       O    -5.24853   16.76129    6.59657
      H1    -4.75310   16.36755    5.79567
       H    -6.99754   15.90933   11.79040
       O    -6.34780   15.18048   12.05638
      H1    -5.65762   15.75528   12.48383
       H    -9.16618   11.49367    8.51921
       O    -8.80010   10.65922    8.30099
      H1    -9.54640    9.98914    8.41537
       H   -11.23711   15.80202    9.39522
       O   -10.32913   15.53513    9.27026
      H1   -10.44132   14.55136    9.28262
       H   -11.05351   12.62643    9.67450
       O   -10.49622   12.94529    8.94263
      H1   -11.03025   12.92482    8.13871
       H    -8.06697   12.16201   12.02550
       O    -8.61346   12.72130   12.65089
      H1    -9.21921   12.04118   13.07053
       H    -7.83554   13.38664    2.29372
       O    -8.00935   12.52997    2.69942
      H1    -7.12006   12.18939    2.87434
       H    -6.36487   15.24651    9.12391
       O    -6.46275   14.87412    8.21290
      H1    -5.98060   15.56456    7.68758
       H    -9.71433   14.21305   11.99413
       O   -10.36178   14.79102   12.37771
      H1   -10.74686   15.27240   11.59822
       H    -9.44008   15.44518    7.51464
       O    -8.70070   15.71189    6.88945
      H1    -7.98456   15.44841    7.49162
       H    -7.65078   11.20062    9.94176
       O    -7.24890   11.16928   10.80407
      H1    -6.47195   11.79561   10.78165
       H   -10.86620   12.45709   11.88680
       O   -11.58313   12.13497   11.34289
      H1   -11.39322   11.17622   11.29712
       H    -5.66973   11.12826    6.89293
       O    -5.21044   11.85087    7.37326
      H1    -5.90210   12.52368    7.55902
       H    -8.21738   17.25752   11.66781
       O    -7.99706   16.86116   10.80810
      H1    -8.86573   16.55376   10.54958
       H    -9.10165   12.20921    3.90724
       O    -9.89569   11.98647    4.45313
      H1   -10.53929   11.85968    3.71174
       H    -8.08749   17.31600    6.56105
       O    -7.72137   18.12979    6.22213
      H1    -7.84018   18.72565    6.96712
       H   -13.10833   15.06924    2.60545
       O   -12.75451   15.51022    3.42003
      H1   -12.74459   16.44376    3.11497
       H    -5.47152   11.76178    4.14828
       O    -6.41789   11.32455    4.39458
      H1    -6.84007   12.07297    4.80491
       H   -13.22256   14.85846   11.49809
       O   -12.75595   15.75805   11.34615
      H1   -13.26347   16.37304   11.87964
       H   -12.90066   11.46750    6.84949
       O   -13.48822   10.70109    6.82429
      H1   -13.26473   10.25775    6.01296
       H    -6.89960   14.84626    4.30609
       O    -6.15001   15.44951    3.98533
      H1    -6.44822   15.41592    3.04813
       H   -14.98917   17.27935    6.76822
       O   -14.05416   17.32003    6.81907
      H1   -13.73023   16.38222    6.70944
       H    -8.50604   12.40027    5.69065
       O    -7.77254   12.86837    6.12281
      H1    -8.13148   13.75966    6.16212
       H    -9.33480   15.23514    4.60530
       O    -9.21865   15.36128    3.64858
      H1   -10.05447   14.95870    3.29189
       H    -8.25116   18.26952    4.49960
       O    -8.75580   18.18445    3.67726
      H1    -9.08192   17.33933    3.85158
       H    -6.26835   17.68965   10.01504
       O    -5.68423   18.44831    9.81023
      H1    -4.83752   17.99607    9.88262
       H   -12.23814   18.42662    6.56976
       O   -11.88042   19.29356    6.68439
      H1   -12.63958   19.85052    6.98174
       H   -12.24158   13.60464    5.92182
       O   -11.65162   13.03860    6.37667
      H1   -11.09232   12.72352    5.61367

