90
frame 2 | Written by MDAnalysis XYZWriter (release 2.4.3)
       H    -4.01183   -7.34440    4.94829
       O    -4.82742   -6.78175    4.98113
      H1    -4.86713   -6.39705    5.88472
       H    -7.96979  -11.85322    8.51049
       O    -7.23813  -12.48601    8.44711
      H1    -6.65584  -12.13636    9.10513
       H    -1.78773  -14.42110    2.04458
       O    -2.31677  -14.26790    1.28373
      H1    -3.14649  -13.97212    1.71736
       H    -3.50886  -11.99296    6.86441
       O    -3.70943  -11.72100    5.92582
      H1    -3.36899  -10.81377    5.94293
       H    -6.85416  -12.40557    0.89860
       O    -6.16531  -12.02844    0.31960
      H1    -5.56693  -11.61001    0.96633
       H    -7.46899  -12.95996    2.49051
       O    -7.68062  -13.76257    1.98307
      H1    -6.78262  -14.12783    1.80067
       H    -8.87077   -8.91552    2.48950
       O    -8.98452   -9.35348    3.35401
      H1    -9.12089   -8.56343    3.84210
       H   -10.15865  -14.19363    1.49992
       O   -10.80465  -13.54171    1.25818
      H1   -10.57014  -12.64081    1.54031
       H    -7.22216  -10.41230    2.97752
       O    -6.69883  -11.20981    3.05791
      H1    -6.60946  -11.15287    4.03837
       H   -10.16889  -15.77301    4.24385
       O    -9.22696  -15.52359    4.31187
      H1    -9.04993  -15.01718    3.50209
       H    -8.61226  -10.93476   -2.40467
       O    -8.35049  -11.84746   -2.12409
      H1    -7.67067  -11.74955   -1.48148
       H    -2.28970   -8.15998    5.89174
       O    -2.50364   -8.21146    4.94532
      H1    -1.96648   -7.44828    4.63271
       H    -0.93609  -11.32456    3.53109
       O    -1.06161  -10.67676    2.84747
      H1    -1.63135   -9.97233    3.18030
       H    -4.90760  -15.19428    1.06009
       O    -5.37951  -14.96745    1.88420
      H1    -5.23291  -15.72501    2.46366
       H    -6.68755   -8.28400    7.01260
       O    -7.42562   -7.64721    6.94227
      H1    -8.08046   -7.88956    7.62016
       H    -8.32106   -7.17640    5.38990
       O    -9.17800   -7.11492    4.96918
      H1    -9.83428   -7.10978    5.63184
       H    -4.69255   -9.41913    9.00600
       O    -5.56030   -9.30155    8.59939
      H1    -5.92185  -10.03494    9.18900
       H    -3.25615  -13.00623    9.22178
       O    -3.88623  -12.81890    8.52860
      H1    -3.91626  -13.70131    8.08596
       H    -7.57202  -14.22716    7.06307
       O    -7.19217  -15.13182    7.01681
      H1    -7.98363  -15.69638    7.21898
       H    -9.61712  -10.83110    3.31129
       O    -9.80335  -11.73337    3.00252
      H1    -9.65071  -12.25433    3.77323
       H    -6.37879  -15.83413    5.38632
       O    -5.99144  -16.23104    4.59044
      H1    -6.82909  -16.60709    4.19113
       H    -5.16497  -13.44334   -0.28742
       O    -4.95415  -14.28165   -0.75702
      H1    -4.51351  -13.92074   -1.58196
       H   -10.81014  -13.08691    5.54514
       O   -11.68942  -13.00641    5.94189
      H1   -12.24437  -12.89476    5.18677
       H    -8.00394  -12.76984    5.30631
       O    -8.84446  -13.20953    5.55863
      H1    -8.75096  -14.09541    5.13073
       H   -11.12817   -9.95819    0.84982
       O   -11.41636   -9.06924    1.06360
      H1   -12.09317   -8.96160    0.37118
       H    -7.17695   -8.61617    0.27327
       O    -7.57812   -9.48495    0.44996
      H1    -6.80737  -10.00885    0.23231
       H    -5.39543  -11.42993    5.81019
       O    -6.35839  -11.37957    5.85178
      H1    -6.49100  -11.48812    6.80185
       H    -4.25997  -13.06272    4.56791
       O    -4.05220  -13.49854    3.71246
      H1    -4.76170  -14.10559    3.57851
       H    -5.01123   -8.45038   -1.37856
       O    -4.54074   -9.14190   -0.97967
      H1    -4.07543   -8.65062   -0.30276
       H    -1.92812  -16.22053    4.11286
       O    -1.58703  -15.33565    3.86006
      H1    -2.39071  -14.79033    3.98954

