90
frame 3 | Written by MDAnalysis XYZWriter (release 2.4.3)
       H     7.15494   10.63230   -8.91505
       O     6.54590   11.37294   -8.85765
      H1     6.10254   11.14187   -7.97744
       H     8.12157   12.81388   -8.76420
       O     8.87887   13.21802   -8.36248
      H1     9.10839   13.92289   -9.00672
       H     6.67998    9.18590  -15.14278
       O     6.88079   10.04364  -14.79585
      H1     7.03025   10.50052  -15.60330
       H    15.48824    7.21856   -9.49343
       O    16.21313    6.98030   -8.86161
      H1    16.49342    6.11703   -9.23686
       H    12.35630    8.61229  -13.35737
       O    11.55738    8.32517  -13.78506
      H1    11.76441    7.40136  -14.07659
       H    10.67300    5.64014   -7.66644
       O    11.44848    5.48857   -7.11589
      H1    11.43276    6.35127   -6.59193
       H     5.99363    6.84240   -6.26653
       O     6.06598    6.98889   -7.24838
      H1     6.86772    6.48807   -7.45317
       H    11.45109    1.73566  -10.21014
       O    11.87864    2.44225  -10.71989
      H1    11.94001    3.22395  -10.20570
       H    15.20335    4.96907  -13.50367
       O    14.85519    5.86922  -13.56342
      H1    13.92865    5.82287  -13.87806
       H    11.99293    5.44386  -15.38327
       O    12.27673    5.61388  -14.47762
      H1    11.81595    4.91274  -13.93962
       H    11.89212    8.49017   -7.12551
       O    11.98361    9.03704   -7.92104
      H1    11.45775    8.42086   -8.51536
       H     8.66342    7.77353  -12.14933
       O     9.51272    7.36454  -12.02156
      H1    10.03721    7.92327  -12.53314
       H     8.00897    5.19517  -15.42443
       O     7.50406    5.61271  -14.73880
      H1     8.15923    6.03068  -14.16839
       H     8.22541    5.09709   -9.47815
       O     8.18338    5.96055   -9.09239
      H1     8.89970    6.47272   -9.51477
       H    14.62717    6.87730  -11.66071
       O    14.20042    7.24824  -10.90864
      H1    14.41824    8.15574  -11.13128
       H    10.97168    9.31479  -15.04415
       O    10.34420    9.96908  -15.48909
      H1     9.45310    9.72754  -15.17528
       H     9.26384    8.43799   -9.35476
       O    10.09611    7.92364   -9.63738
      H1     9.95286    7.74141  -10.58736
       H     6.03973    8.22529  -12.19922
       O     6.84671    8.69827  -12.31219
      H1     6.69489    9.36698  -12.99450
       H    12.96719   13.58230   -8.36909
       O    13.00204   12.63340   -8.38997
      H1    12.56310   12.39769   -9.20308
       H    10.44855    4.85975  -12.44250
       O    10.74846    4.00587  -12.78494
      H1    11.15591    3.62162  -11.96052
       H    11.39524   13.13820  -11.22036
       O    11.35803   12.22794  -10.98107
      H1    10.46611   12.03507  -11.25091
       H     7.10522    9.00853   -8.07069
       O     7.91895    9.22351   -8.50501
      H1     8.39193    9.59747   -7.73710
       H     5.28827    6.75817  -10.99820
       O     5.87094    5.99828  -10.85508
      H1     6.66194    6.35339  -10.38318
       H    12.09534    5.20700   -8.98974
       O    12.66298    4.88974   -9.69667
      H1    12.95386    5.67562  -10.14280
       H    13.10241   10.98783  -12.84456
       O    13.33010   10.35180  -12.11760
      H1    13.03381   10.91364  -11.36351
       H    13.72943   11.41350   -7.55778
       O    13.99663   10.58013   -7.07121
      H1    13.35164    9.96752   -7.52181
       H    10.88068   10.24714   -7.45278
       O    10.10498   10.75117   -7.04852
      H1     9.94108   11.33548   -7.80566
       H     6.77427    2.94665   -8.00667
       O     7.30738    3.23962   -8.79716
      H1     6.48747    3.16574   -9.36618
       H    14.85581   10.23716  -11.58186
       O    15.73983   10.04816  -11.18759
      H1    16.18714   10.86840  -10.99620
       H    13.06646   13.00532  -13.84426
       O    12.22279   12.53213  -13.78717
      H1    11.91640   12.51594  -12.88514

