90
frame 2 | Written by MDAnalysis XYZWriter (release 2.4.3)
       H     6.99413    4.90811  -18.90955
       O     6.04355    5.11367  -19.00567
      H1     5.66850    4.50961  -18.33832
       H     3.33837    1.39196  -13.04434
       O     4.24577    1.11499  -12.83330
      H1     4.54493    1.87922  -12.27597
       H     9.85064   -2.14586  -13.72260
       O     8.92034   -2.17839  -13.36528
      H1     8.68074   -1.31842  -13.81450
       H    11.74635   -2.06513  -14.43337
       O    11.34091   -2.88068  -14.17305
      H1    10.95823   -3.25212  -14.99238
       H     6.76051    2.88850  -14.04141
       O     6.37372    2.05602  -14.36672
      H1     5.69301    1.96330  -13.70260
       H     7.74349    0.84197  -14.38518
       O     8.43328    0.25159  -14.65335
      H1     9.07196    0.95159  -14.95314
       H     3.24785   -7.29571  -18.62628
       O     4.08584   -7.68196  -18.38206
      H1     4.71481   -7.20686  -18.92147
       H    12.44903   -2.36043  -18.08262
       O    12.33106   -2.08504  -17.17500
      H1    11.38106   -1.69661  -17.19888
       H     4.18320    1.58963  -19.38382
       O     3.37672    1.90863  -19.03274
      H1     3.29715    1.32621  -18.23390
       H     4.15988   -5.25180  -14.97722
       O     4.22463   -5.98291  -15.58532
      H1     3.46728   -5.93346  -16.17865
       H     8.77812    3.50249  -16.93501
       O     9.13016    4.30046  -16.52217
      H1     9.22624    4.89981  -17.30889
       H     2.42158    0.36852  -16.32884
       O     3.30106    0.42884  -16.54176
      H1     3.68904    0.70342  -15.72640
       H    -0.29776    0.13981  -19.23508
       O    -0.90387   -0.03219  -18.48236
      H1    -1.26151   -0.87036  -18.72034
       H     9.71127   -4.85865  -15.77225
       O     9.18086   -4.25437  -16.31935
      H1     8.36655   -4.15725  -15.73013
       H     5.00900    4.31306  -16.01278
       O     5.30745    3.81091  -16.79745
      H1     4.80134    3.05197  -16.88175
       H     0.89812   -6.33713  -18.87359
       O     1.73813   -5.99809  -18.51756
      H1     2.04435   -5.56098  -19.32025
       H    12.97000    0.69488  -18.72936
       O    12.39580    0.86662  -17.95314
      H1    12.74922    0.13332  -17.43067
       H     3.67340   -3.04819  -13.33217
       O     3.93060   -3.82792  -13.88377
      H1     4.35672   -3.25462  -14.62157
       H     7.98190   -5.77063  -18.41431
       O     8.81565   -5.39103  -18.70569
      H1     9.02294   -4.76370  -17.96074
       H    10.74538    1.14597  -15.02290
       O    10.36557    2.03391  -15.29612
      H1    10.74021    2.49633  -14.53819
       H     6.74942    2.52363  -16.76071
       O     7.41013    1.91753  -17.15993
      H1     7.68201    1.33650  -16.43458
       H     5.97613   -1.06649  -18.85472
       O     5.44105   -1.70560  -18.45044
      H1     5.83323   -2.51474  -18.80145
       H     6.45440   -3.45280  -14.64477
       O     7.10606   -4.17140  -14.46861
      H1     7.78787   -3.71389  -13.97322
       H     6.11171   -6.55460  -16.97560
       O     6.93599   -6.92030  -17.26392
      H1     6.75623   -7.89314  -17.14132
       H     9.42407    4.91893  -19.53339
       O     8.65029    4.32051  -19.57657
      H1     9.05428    3.42505  -19.79399
       H     4.02492   -1.15736  -15.79209
       O     4.70338   -1.89660  -15.85869
      H1     5.07355   -1.79824  -16.74131
       H     0.18602    0.73300  -15.82745
       O     0.60406   -0.01103  -16.29146
      H1     0.15502   -0.10122  -17.12973
       H     8.97687   -1.20393  -16.53761
       O     9.75588   -1.55728  -16.99288
      H1     9.59211   -2.51695  -16.77822
       H     1.70223   -4.74238  -17.26988
       O     1.40506   -4.16748  -16.50079
      H1     0.45412   -4.03772  -16.67007
       H     1.57717   -2.75810  -15.37324
       O     1.68173   -2.03606  -14.65683
      H1     1.24290   -1.25713  -15.08084

