90
frame 3 | Written by MDAnalysis XYZWriter (release 2.4.3)
       H    14.54708  -19.01731   -2.91751
       O    14.00343  -18.83924   -3.76226
      H1    14.04996  -19.73998   -4.10603
       H    16.07003  -16.61621   -1.55024
       O    16.63099  -15.92117   -1.92387
      H1    17.57906  -16.24502   -1.69014
       H    12.02168  -13.53658   -2.57948
       O    11.83906  -14.45199   -2.33310
      H1    12.00296  -14.88660   -3.21598
       H    17.16657  -15.96910  -11.92709
       O    16.38367  -16.28240  -11.44501
      H1    16.23642  -17.15744  -11.70060
       H    11.24195  -17.20113   -3.97379
       O    12.06116  -16.91995   -3.48451
      H1    12.71311  -17.64441   -3.70817
       H    17.36560  -16.23780   -7.15895
       O    18.13001  -16.78552   -6.99815
      H1    17.81005  -17.56651   -6.45697
       H    13.63942  -19.41297   -8.49266
       O    14.54623  -19.57600   -8.81422
      H1    15.06198  -19.67481   -8.03491
       H    18.58481  -12.37387   -6.85088
       O    19.01627  -12.44026   -5.95967
      H1    19.21047  -13.35638   -5.98994
       H    16.55078  -19.88652  -14.10801
       O    16.42604  -19.10832  -13.53861
      H1    15.64892  -19.41921  -12.98806
       H    18.04096  -12.90799  -11.31246
       O    18.68497  -12.14558  -11.20003
      H1    19.33853  -12.50882  -10.54096
       H    16.56659  -15.81652    0.46447
       O    16.96298  -16.30427    1.19100
      H1    16.40285  -17.04437    1.37615
       H    17.05943  -12.63190   -8.40941
       O    17.64828  -11.89190   -8.51604
      H1    17.72261  -11.95898   -9.48894
       H    15.96054  -14.36309   -2.56302
       O    15.24075  -13.68681   -2.58143
      H1    15.76958  -12.92815   -2.91373
       H    13.71338  -12.37988   -3.02431
       O    12.94262  -11.81151   -2.79501
      H1    13.06202  -11.62082   -1.82049
       H    18.60174  -17.45829  -10.33227
       O    19.17923  -17.05960   -9.63831
      H1    18.60516  -17.02028   -8.85884
       H    18.01324  -18.53928   -0.02075
       O    17.27678  -19.03075    0.43278
      H1    17.61923  -18.90512    1.38354
       H    19.64234  -15.33099  -12.07988
       O    18.93909  -15.42830  -12.63194
      H1    19.18387  -16.19333  -13.19979
       H    11.30728  -17.37861   -8.79937
       O    10.77783  -16.75214   -9.34039
      H1    10.32581  -16.38198   -8.60514
       H    16.43020  -18.51089   -5.50520
       O    17.18280  -19.05403   -5.76854
      H1    16.72274  -19.83009   -6.13413
       H    15.29965  -18.47946   -0.48428
       O    14.77560  -18.16778   -1.27815
      H1    14.07544  -17.79483   -0.75812
       H    15.77377  -13.83571  -11.13198
       O    16.24314  -13.10959  -11.52450
      H1    15.95159  -13.00973  -12.45722
       H    14.67157  -15.38303   -5.24251
       O    14.87865  -14.45629   -5.47655
      H1    15.16458  -14.08249   -4.62178
       H    15.83326  -11.10340   -4.35732
       O    16.15226  -11.33533   -3.43824
      H1    15.68069  -10.67627   -2.90955
       H    15.78299  -14.62745   -7.10375
       O    16.36675  -14.62305   -7.90866
      H1    15.79662  -15.10011   -8.55061
       H    13.18114  -12.67713   -7.97588
       O    12.90782  -13.63683   -7.83397
      H1    13.20356  -13.62069   -6.93176
       H    13.24364  -15.04825    0.31434
       O    13.84735  -15.42209   -0.32694
      H1    13.34784  -15.27579   -1.17647
       H    19.09226  -10.28894   -3.67840
       O    18.63971  -10.64700   -2.83832
      H1    17.82019  -11.06886   -3.21300
       H    19.32390  -16.52452   -0.42288
       O    18.87648  -17.03437   -1.14406
      H1    19.59766  -17.11715   -1.78474
       H    16.08235  -16.60893   -4.14780
       O    15.63307  -17.08128   -4.87066
      H1    14.96445  -17.65804   -4.51955
       H    13.59750  -18.74376  -11.70334
       O    14.52582  -18.66101  -11.48875
      H1    14.59773  -19.17671  -10.61898

