90
frame 2 | Written by MDAnalysis XYZWriter (release 2.4.3)
       H   -14.21870    1.51687    2.26000
       O   -13.89066    1.60198    3.17632
      H1   -14.35090    2.34549    3.58828
       H   -11.69379   10.47764    1.42173
       O   -12.11383   11.27663    1.73311
      H1   -12.29371   11.79073    0.96158
       H   -10.78863    1.86012    3.20046
       O   -11.26502    1.70983    4.01177
      H1   -12.17029    1.58503    3.65458
       H   -11.66712    3.21047    7.80731
       O   -11.18572    4.05923    7.80704
      H1   -10.66004    3.96294    7.03539
       H    -7.35681    4.72664   -0.66665
       O    -6.46993    5.13239   -0.76613
      H1    -6.77636    5.97120   -1.25064
       H    -7.86879    4.61735    5.10449
       O    -7.05502    4.50931    5.64402
      H1    -6.40997    4.86504    5.05375
       H    -5.45238    6.81382    4.23232
       O    -5.06420    5.91736    4.04261
      H1    -5.24213    5.73739    3.08998
       H    -5.75220    8.57016    1.26120
       O    -6.47011    8.80538    0.66981
      H1    -7.17448    8.20809    0.88065
       H   -10.28281    8.05054    1.10339
       O   -11.09513    8.46529    0.81301
      H1   -11.67686    7.71193    0.76116
       H   -11.11640    6.07906    2.85293
       O   -10.55884    5.47189    2.29942
      H1   -11.33016    5.07022    1.79660
       H    -6.49627    2.44542    3.35114
       O    -7.13441    1.95963    2.77747
      H1    -7.66576    1.43757    3.39487
       H    -7.87518    9.03034    4.17615
       O    -8.84090    9.13502    4.08756
      H1    -8.93111   10.10062    3.95274
       H    -8.80088    6.22353    2.15333
       O    -8.10335    6.64979    1.65092
      H1    -7.86074    6.02490    1.00152
       H    -9.49167    1.03219    1.28139
       O    -9.84302    1.85988    1.68204
      H1    -9.02011    2.34298    1.39054
       H   -16.48187    4.54057    1.08127
       O   -15.57166    4.49642    1.40662
      H1   -15.11286    5.21003    1.01171
       H   -11.88343    1.73746   -1.50982
       O   -12.03655    2.28327   -0.72998
      H1   -11.36887    1.86636   -0.15366
       H   -11.76088    8.45290    5.06661
       O   -12.03047    9.39484    5.11424
      H1   -11.30138    9.81916    4.65463
       H    -8.41997    2.93737   -1.08349
       O    -8.74517    3.62943   -0.44985
      H1    -9.29543    4.21681   -0.98895
       H   -15.90024    4.03498    4.24953
       O   -14.99169    3.94344    3.92798
      H1   -15.18221    4.18980    2.99027
       H   -15.53487    6.72543    2.92000
       O   -16.42330    6.91285    3.28640
      H1   -16.65324    7.57143    2.72010
       H   -10.45756    3.56393    4.50562
       O    -9.85612    4.03304    5.09199
      H1    -9.94454    4.94023    4.93108
       H    -8.27048    8.33647   -1.94389
       O    -9.25837    8.49639   -2.06966
      H1    -9.52033    8.99754   -1.28968
       H   -10.48899    7.01448    5.38156
       O   -11.09326    6.88520    4.63696
      H1   -11.80054    6.39795    5.10802
       H   -13.97703    6.46057    0.08987
       O   -14.18983    6.89272    0.92406
      H1   -14.45666    7.82371    0.65787
       H   -14.16865    6.15197    5.45956
       O   -13.37383    5.51388    5.52055
      H1   -13.67480    4.74416    5.05004
       H    -9.01554    8.26103    5.77386
       O    -9.29506    7.80548    6.58363
      H1    -8.39779    7.46604    6.88830
       H   -12.30082    3.93315   -1.01708
       O   -12.38479    4.77032   -1.51251
      H1   -12.38013    4.31993   -2.38903
       H    -9.49444    0.48144    4.06996
       O    -8.63005    0.15313    4.39466
      H1    -8.62346   -0.72869    4.00415
       H   -10.80101    5.83395   -1.89446
       O    -9.83328    5.74178   -2.14380
      H1    -9.58813    6.66253   -2.13724
       H    -5.86327    4.39235    0.61325
       O    -5.57136    4.41111    1.52380
      H1    -4.67903    4.03383    1.45122

