90
frame 3 | Written by MDAnalysis XYZWriter (release 2.4.3)
       H     1.07491   14.90512   16.53481
       O     1.35154   15.06601   17.42534
      H1     0.52861   14.99642   17.90306
       H    -8.39149   15.71229   17.93823
       O    -9.03667   16.19724   18.37979
      H1    -9.71456   16.34398   17.69657
       H     0.03448   11.41922   12.00336
       O    -0.25906   11.41075   11.09285
      H1     0.34126   10.84622   10.62921
       H    -3.15553   11.43472   12.29017
       O    -2.94712   11.99411   13.02761
      H1    -3.04680   12.94773   12.73099
       H    -3.44432    9.55552   18.74588
       O    -3.22771    8.59144   18.68546
      H1    -3.47694    8.34802   17.76114
       H     0.31554   19.78136   19.76989
       O     0.34290   19.31418   18.88459
      H1     0.90426   18.57400   19.10716
       H    -6.99754   15.90933   11.79040
       O    -6.34780   15.18048   12.05638
      H1    -5.65762   15.75528   12.48383
       H    -0.70840   15.15654   15.52472
       O    -0.10145   15.38877   14.77761
      H1    -0.55297   14.93139   14.01890
       H    -4.31158   11.57886   18.56140
       O    -3.46982   11.09356   18.30317
      H1    -3.30313   11.50346   17.41458
       H    -5.72764   10.94478   15.77829
       O    -5.76435    9.99271   15.92681
      H1    -6.26624    9.68418   15.16188
       H     1.07496   16.61758   14.46914
       O     1.59191   17.44081   14.18110
      H1     1.73818   17.17952   13.24535
       H    -5.97554   16.37342   18.04899
       O    -6.26778   15.82246   17.31955
      H1    -5.74372   16.30774   16.61316
       H    -6.96824   14.66796   13.66941
       O    -7.36381   14.46151   14.53860
      H1    -7.93405   13.75750   14.24708
       H     1.08694   10.20706   15.17240
       O     0.22061    9.87257   14.86863
      H1     0.41899    8.96256   14.77700
       H    -1.96375   14.22614   17.64153
       O    -1.21037   14.04256   17.06539
      H1    -1.20295   13.18519   16.70998
       H    -0.47670   18.30627   13.46852
       O    -1.24820   18.50867   12.89669
      H1    -1.95104   18.58634   13.54277
       H     2.13680    8.50014   17.31286
       O     2.49708    9.39120   17.26832
      H1     3.11180    9.11393   16.50553
       H    -4.24163   14.13435   14.22833
       O    -4.04187   14.92793   13.68903
      H1    -4.08469   15.60390   14.36597
       H     2.17424   16.61051   18.49093
       O     2.18237   17.38808   19.04986
      H1     2.65277   18.14957   18.55215
       H    -4.96286   13.50127   16.26516
       O    -5.13770   12.86534   15.54780
      H1    -5.94311   13.26507   15.12539
       H     4.08956   14.64160   19.40594
       O     4.02668   13.76634   19.01824
      H1     4.57839   13.81651   18.20768
       H    -4.80797   14.90842   17.52018
       O    -4.03720   14.32170   17.61395
      H1    -4.46106   13.71050   18.29425
       H    -1.89820   15.11432   11.53065
       O    -1.78315   14.89254   12.47930
      H1    -2.67489   14.99761   12.79702
       H    -0.32754    9.11960   17.39978
       O    -0.55481    9.19443   18.36905
      H1    -1.51083    9.09892   18.42068
       H     2.46173   12.13397   15.99774
       O     3.30275   12.50783   15.72086
      H1     3.20821   13.40885   16.02512
       H     1.11016   11.50032   17.66202
       O     0.84173   12.18642   17.02980
      H1     1.06554   13.02031   17.45401
       H    -2.29220   11.72036   14.91280
       O    -2.11525   11.48914   15.79530
      H1    -1.27222   11.04494   15.81565
       H    -2.78879    9.64082   15.56330
       O    -3.37977    8.89718   15.66370
      H1    -4.31399    9.36679   15.68966
       H    -2.26606   18.25704   17.97690
       O    -2.56354   17.35057   18.09825
      H1    -1.83016   16.97135   18.55973
       H    -3.49724   17.04746   16.64665
       O    -3.96894   16.81482   15.79212
      H1    -4.11475   17.66468   15.37052

