90
frame 3 | Written by MDAnalysis XYZWriter (release 2.4.3)
       H     4.85170   11.90402   15.25775
       O     5.59310   11.24389   15.06376
      H1     6.28208   11.86612   14.78323
       H    14.95649    9.36980   18.16743
       O    15.30986    9.79789   18.98134
      H1    16.20659   10.20173   18.58821
       H    11.43246   13.54557   12.42595
       O    10.94390   14.03592   11.78031
      H1    10.02033   13.92463   12.14853
       H    10.60899    9.62567   12.01077
       O     9.72473    9.95058   12.15876
      H1     9.22481    9.52264   11.45107
       H    12.58890   14.28037   17.63657
       O    13.26344   14.13656   18.25067
      H1    13.58439   15.09214   18.28583
       H     8.38806    9.81567   18.52516
       O     8.12147   10.70150   18.71031
      H1     7.96090   10.71482   19.67226
       H     4.47342   10.82382   17.44052
       O     5.08680   10.95508   18.14039
      H1     5.87896   11.02370   17.64291
       H    10.79890    7.45052   13.42980
       O     9.79380    7.57372   13.44395
      H1     9.59132    8.10225   12.66931
       H     7.60027   14.30518   19.16892
       O     7.44580   15.08823   19.68803
      H1     8.22801   15.67226   19.55738
       H    13.36646    7.77749   19.33628
       O    13.60763    7.40853   18.44019
      H1    14.17624    6.73604   18.81189
       H    13.75255    8.50706   17.32927
       O    14.13334    9.10391   16.59661
      H1    13.45753    9.82922   16.67109
       H    14.41902    9.98133   14.39845
       O    14.53565   10.17192   13.44125
      H1    15.17917    9.46348   13.17912
       H     8.90112   11.01738   13.48494
       O     8.52097   11.46184   14.27935
      H1     8.56386   12.41787   14.04586
       H    12.15096   15.79517   15.63500
       O    12.90955   16.21259   15.10113
      H1    12.61562   16.31506   14.15917
       H    13.17708    7.95966   13.74651
       O    12.45486    7.50075   13.29265
      H1    12.45793    8.00723   12.46743
       H     7.75911   14.13757   14.11702
       O     8.53873   14.09794   14.68816
      H1     8.91644   14.96386   14.60157
       H     9.75731   11.21431   15.45439
       O    10.22769   11.02431   16.24062
      H1     9.78665   10.27588   16.70319
       H    13.04009   12.17876   16.00611
       O    12.99257   11.20894   15.96230
      H1    12.05780   11.22546   15.97099
       H    13.10179   12.02216   18.70422
       O    12.96128   11.09583   19.04493
      H1    13.88794   10.79460   19.02311
       H    10.71168   15.48572   17.22663
       O    10.91007   14.57253   17.01467
      H1    10.21790   14.13182   17.52806
       H     8.80389    8.39536   14.84302
       O     8.14978    8.81746   15.46450
      H1     8.18248    9.81215   15.35845
       H     5.56320   14.30385   15.98212
       O     5.58208   14.03348   16.95357
      H1     6.52889   13.92332   17.16231
       H     7.74957   11.25434   11.63625
       O     7.46305   12.01302   11.05532
      H1     6.63922   11.56126   10.73902
       H    13.09284   12.79555   14.08188
       O    12.75152   12.46585   13.23279
      H1    13.01867   11.50296   13.32568
       H     5.20215   10.28574   12.22097
       O     6.08988   10.19129   12.55990
      H1     5.98950   10.72684   13.35440
       H    14.57557   13.48625   16.72940
       O    14.53520   13.39667   15.76817
      H1    14.48461   14.37726   15.49257
       H     9.93413   11.36044   19.04759
       O    10.44889   11.58417   19.83742
      H1    11.34477   11.63329   19.50126
       H     8.33292    6.85154   15.50558
       O     8.16710    5.96744   15.80681
      H1     7.55378    5.99923   16.54296
       H     8.72857   13.57650   16.77843
       O     8.19521   13.40210   17.58861
      H1     8.34245   12.44753   17.77217
       H    10.28641    8.58470   19.07449
       O     9.95029    8.94165   18.24448
      H1     9.87759    8.19085   17.69354

