90
frame 5 | Written by MDAnalysis XYZWriter (release 2.4.3)
       H     8.93151   14.18784  -12.09080
       O     8.28647   14.68945  -12.63234
      H1     7.95087   14.01648  -13.18332
       H     2.62851   14.28997  -14.85350
       O     2.87173   15.14562  -15.30844
      H1     3.21606   14.83848  -16.18754
       H     6.03935   16.12014  -15.60352
       O     6.24857   15.51474  -16.37755
      H1     5.48010   15.49141  -16.93069
       H     0.76673   15.31993  -18.14400
       O     1.06042   16.19737  -17.87750
      H1     1.47215   16.10136  -17.02705
       H     3.85954    5.71346  -19.01366
       O     3.11852    5.45084  -18.48017
      H1     2.56851    6.20232  -18.57261
       H     7.69096    8.39439  -16.58166
       O     8.68320    8.31529  -16.46229
      H1     9.01459    8.34591  -17.37688
       H     3.52203    8.75484  -16.71456
       O     3.76830    8.50705  -17.65552
      H1     4.12717    9.28308  -18.09673
       H     7.53752   12.77104  -15.54714
       O     7.22878   13.42941  -14.94755
      H1     7.00859   14.18755  -15.51336
       H     3.52059   13.80767  -17.83124
       O     4.22762   14.49542  -17.77943
      H1     3.98225   15.20828  -18.40892
       H     9.01221   16.36590  -16.53918
       O     8.53912   16.79967  -17.21908
      H1     7.62073   16.48729  -17.04758
       H     2.22413    8.02234  -18.01578
       O     1.41973    7.88512  -18.50238
      H1     0.77989    7.40508  -17.91527
       H    11.44369   15.18857  -18.39088
       O    10.76941   14.81727  -18.99422
      H1    10.47743   15.52908  -19.54178
       H     5.73016   13.70863  -18.35837
       O     6.39996   13.00776  -18.48482
      H1     7.26020   13.14913  -18.10373
       H     9.46299   13.90079  -18.06109
       O     9.00169   13.40941  -17.36814
      H1     8.82169   14.12335  -16.69233
       H     0.09148   12.20163  -18.98380
       O     0.00230   13.14777  -18.74797
      H1    -0.81608   13.26097  -18.30429
       H     9.50482    9.89303  -19.64237
       O     9.90469    9.24637  -19.01019
      H1    10.31115    9.86205  -18.43792
       H     1.12874    8.67841  -15.05549
       O     1.93269    9.16787  -14.95415
      H1     2.14053    9.02622  -14.06282
       H     1.66975   12.02881  -15.76501
       O     2.20654   11.85624  -14.94098
      H1     2.19373   10.86978  -14.92025
       H     7.61850    5.72509  -17.10955
       O     6.97074    5.34926  -16.49487
      H1     6.61481    6.09921  -16.02634
       H    10.65177   10.39393  -14.01577
       O     9.84698   10.72105  -13.50500
      H1     9.62495   10.05988  -12.85306
       H     3.06134   17.27416  -19.06820
       O     3.96914   17.23018  -18.81725
      H1     4.29504   18.12233  -19.11722
       H     9.26452    8.08054  -14.79363
       O     9.78840    7.51486  -14.20424
      H1     9.87436    7.94509  -13.31297
       H     7.41708   11.07116  -11.58318
       O     6.59053   10.66515  -11.90866
      H1     6.00716   11.44371  -12.08409
       H     5.72279   11.46166  -18.48859
       O     5.04371   10.73074  -18.62666
      H1     5.44123   10.07316  -19.19193
       H     5.70125   10.60851  -14.75750
       O     5.39614    9.80950  -14.28584
      H1     6.00365    9.69226  -13.63190
       H     5.23474    8.09130  -16.74506
       O     5.94858    7.90535  -16.11313
      H1     5.78113    8.46047  -15.38758
       H    10.41847   11.58845  -17.14277
       O    11.21079   11.04220  -17.30408
      H1    11.48004   10.51423  -16.50224
       H     2.00769   12.25157  -18.40390
       O     2.68596   12.14987  -17.72489
      H1     3.45424   11.82047  -18.18744
       H     8.82473   11.01395  -14.97029
       O     8.21935   10.82608  -15.66528
      H1     8.44124    9.93779  -15.94717
       H     4.57183    6.96405  -14.95249
       O     4.19657    7.10920  -14.05489
      H1     4.62398    7.92242  -13.73090

