90
frame 2 | Written by MDAnalysis XYZWriter (release 2.4.3)
       H    -4.08590    8.01031    9.59521
       O    -3.55405    7.25887    9.30348
      H1    -3.03236    7.72367    8.59570
       H    -3.02495   15.56368    6.57205
       O    -2.21953   15.04297    6.33934
      H1    -1.49835   15.33641    6.97469
       H    -0.97144   11.00154    5.45928
       O    -1.28833   10.38588    4.80650
      H1    -0.54970   10.22243    4.17623
       H    -1.29338   12.24151    8.79651
       O    -1.46308   12.18593    9.75948
      H1    -0.50339   12.04429   10.13090
       H    -3.20138   13.56051    5.74295
       O    -3.94928   12.98066    5.43573
      H1    -4.17513   12.55354    6.27901
       H     1.40044   11.49324    2.22702
       O     1.70970   10.61143    2.45466
      H1     1.06077   10.04780    2.00627
       H    -4.01214    7.90803    3.12428
       O    -4.33248    8.66632    2.62292
      H1    -3.85698    9.36957    3.08304
       H    -0.18779   13.76351    3.18391
       O    -0.54962   13.91331    4.08568
      H1    -1.42706   14.30087    3.91267
       H    -3.60738   12.64077    0.37488
       O    -4.49323   13.06796    0.07406
      H1    -5.07016   12.52914    0.60413
       H     4.50793    9.67634    2.67644
       O     4.35157   10.28618    1.89863
      H1     3.34767   10.34045    1.93814
       H     2.20601   14.78628    5.74675
       O     1.48377   14.10435    5.93269
      H1     0.84834   14.32594    5.20734
       H     0.01812   11.68437    7.60352
       O    -0.65425   12.19491    7.11589
      H1    -0.08356   12.94402    6.79740
       H    -6.09768    9.03160    5.33256
       O    -6.23262    8.50777    4.52474
      H1    -6.13989    9.20407    3.83605
       H    -3.32089   15.76638    3.24522
       O    -2.84747   14.92694    3.01245
      H1    -3.14232   14.85472    2.06846
       H     3.17607   12.20607    7.87222
       O     2.54492   11.49898    8.01996
      H1     2.82490   10.93766    7.24565
       H    -0.83383    8.91810    1.10590
       O    -0.67637    8.81723    2.07095
      H1    -0.83791    7.86076    2.11043
       H    -6.08846   11.28759    7.75314
       O    -5.24972   11.79775    7.58521
      H1    -5.71000   12.70109    7.57499
       H     0.18125    5.77866    2.48891
       O    -0.65870    6.09994    2.16145
      H1    -1.33678    5.58828    2.65952
       H    -5.56282   11.99696    4.85253
       O    -6.38313   11.67199    4.53872
      H1    -6.86094   11.84507    5.31404
       H    -5.02689   14.13224    4.28348
       O    -5.79180   14.72746    4.27783
      H1    -5.81954   15.21535    3.41675
       H     3.69939    6.15004    4.87704
       O     3.04001    6.56827    4.31164
      H1     2.32268    6.72230    4.98296
       H     0.43658    7.23414    7.44412
       O    -0.09412    6.41108    7.74106
      H1    -0.99921    6.70739    7.52105
       H    -2.70623   11.04237    9.25234
       O    -3.01750   10.29737    8.67752
      H1    -3.80330   10.73989    8.41330
       H    -2.63099   11.56826    1.94764
       O    -2.16026   11.94864    1.14155
      H1    -1.32862   12.32430    1.49739
       H    -2.28022    8.95060    7.82497
       O    -2.08730    8.15715    7.23384
      H1    -1.85476    8.65925    6.47999
       H     2.60745    8.12633    7.09281
       O     1.75724    8.12788    6.54324
      H1     1.85265    8.92512    6.06197
       H     1.81802   10.90160    4.41324
       O     1.59817   10.56236    5.28756
      H1     0.82583   11.04918    5.51898
       H    -3.47472   12.10396    4.06962
       O    -3.38046   11.34037    3.49903
      H1    -2.76165   10.87831    4.08489
       H     0.17749   14.48876    1.52272
       O     0.61472   13.60781    1.61844
      H1     1.56936   13.82411    1.55742
       H     2.29168    9.20380    9.98137
       O     1.44717    9.71349    9.66133
      H1     1.89535   10.21070    8.90555

