90
frame 0 | Written by MDAnalysis XYZWriter (release 2.4.3)
       H   -17.91946    5.44898   10.20193
       O   -17.70844    6.16031    9.55639
      H1   -17.40468    5.75695    8.76130
       H   -13.70413    0.69916    3.17817
       O   -13.51641    1.41944    3.79138
      H1   -14.07000    2.16373    3.63567
       H   -14.90193    2.02141   -0.53379
       O   -15.33757    1.16281   -0.51876
      H1   -15.95729    1.30446    0.22472
       H   -18.35584    9.97506    6.95293
       O   -17.82729   10.76424    7.14318
      H1   -16.98132   10.44573    7.36491
       H   -15.20633    7.73155    4.59965
       O   -15.36365    7.30440    5.44956
      H1   -14.81173    7.86836    5.98774
       H   -17.48950    9.99881    3.57693
       O   -18.27763    9.77620    3.04949
      H1   -17.89620    9.34425    2.28587
       H   -19.32108    7.27446    4.44422
       O   -18.83786    6.53506    4.91256
      H1   -19.61293    5.94433    5.07234
       H   -17.64385    0.09011    2.28969
       O   -16.81738    0.50238    2.09943
      H1   -16.23075   -0.26809    1.96737
       H   -17.33592    3.01965    2.13654
       O   -17.63056    3.42354    1.28655
      H1   -17.65498    2.66599    0.65770
       H   -15.77365    2.25293    8.44135
       O   -16.23752    1.51094    8.06423
      H1   -16.71218    1.96601    7.31223
       H   -14.78237    8.75378   -0.70303
       O   -13.92546    8.81952   -0.17759
      H1   -14.25495    8.98310    0.72123
       H   -16.10937    4.29857    1.15240
       O   -15.13989    4.23632    1.04830
      H1   -14.88890    5.17726    1.08727
       H   -18.67553    0.77261    5.12153
       O   -18.60965    0.85209    4.17441
      H1   -17.63697    0.82321    4.03854
       H   -15.65121    5.83058    6.48042
       O   -16.04713    5.53064    7.32250
      H1   -15.23315    5.27792    7.76870
       H   -15.43777   11.18873    1.42301
       O   -15.51176   10.25242    1.63068
      H1   -15.77246   10.30628    2.57613
       H   -15.92775    4.00363    3.73784
       O   -14.98584    3.74051    3.62183
      H1   -14.86744    3.84131    2.64830
       H   -17.74092    8.18223   -0.22359
       O   -17.74928    9.17269   -0.23360
      H1   -17.08928    9.35492    0.42164
       H   -16.57801    6.71812    3.46068
       O   -16.13241    7.22784    2.78433
      H1   -16.56758    7.00585    1.99653
       H   -17.01910    5.84543   -0.48345
       O   -17.48143    6.27564    0.26440
      H1   -18.29097    5.73945    0.21213
       H   -13.01326    5.91649   -0.31212
       O   -13.36534    6.34810    0.44913
      H1   -13.48436    7.29995    0.09711
       H   -13.17584    4.76543    7.17497
       O   -13.48287    4.64387    8.09501
      H1   -12.91420    3.84729    8.26489
       H   -14.06043    6.27022    5.29704
       O   -13.54782    5.41503    5.37742
      H1   -13.88241    4.89555    4.61236
       H   -16.77981    4.04029    6.76925
       O   -17.35464    3.26718    6.51442
      H1   -18.05343    3.41811    7.10532
       H   -19.36950    8.27614    7.90814
       O   -19.29099    8.65308    6.99304
      H1   -19.20422    7.80605    6.49730
       H   -15.25615    4.44986   -0.88527
       O   -15.90835    4.68532   -1.56588
      H1   -15.81360    4.05661   -2.28800
       H   -18.40209    0.91115   -0.94669
       O   -18.38452    1.83953   -0.60947
      H1   -19.30826    1.93422   -0.25941
       H   -19.66383    4.58913    7.93930
       O   -19.36894    3.68204    8.05227
      H1   -18.76142    3.77677    8.82653
       H   -17.67973    3.69561    4.82392
       O   -17.50361    4.06465    3.88756
      H1   -17.82462    5.03421    3.93957
       H   -16.12553   11.83356    4.42697
       O   -16.06780   10.88150    4.39896
      H1   -15.69639   10.72877    5.27367
       H   -14.88660    1.17184    4.86596
       O   -15.63647    0.70550    5.31523
      H1   -15.58018    0.88722    6.25808

