90
frame 2 | Written by MDAnalysis XYZWriter (release 2.4.3)
       H    -1.22947    1.32171   14.13006
       O    -1.54843    2.16297   14.45288
      H1    -1.03526    2.81933   13.99045
       H    -1.85572    5.11153   18.67916
       O    -1.89127    5.10425   17.72808
      H1    -1.33025    4.35912   17.47908
       H     0.38012    3.60146   16.25718
       O    -0.34295    3.18414   16.73926
      H1    -0.66589    2.65331   15.96526
       H     2.56687   -1.41565   14.65489
       O     3.19369   -0.64044   14.68984
      H1     2.67653   -0.24940   15.41151
       H    -1.94783    0.22231   16.50224
       O    -1.36234   -0.43781   16.90301
      H1    -0.97130   -0.00935   17.68721
       H     1.63747   -1.31488   17.51343
       O     1.24939   -2.13089   17.11640
      H1     1.68823   -2.80350   17.63779
       H    -3.87634    2.95465   13.20296
       O    -4.56621    2.27858   13.55415
      H1    -4.03937    1.50187   13.74568
       H     4.14119   -0.58507   18.79587
       O     3.22074   -0.84265   18.94864
      H1     3.28302   -1.66521   19.43978
       H    -2.72956   -1.66745   17.13051
       O    -3.10992   -2.58613   17.17208
      H1    -2.33046   -3.13217   16.84960
       H    -6.26572   -3.32944   17.46429
       O    -6.07391   -2.34474   17.59863
      H1    -5.12629   -2.26257   17.63275
       H     0.14142   -3.06950   13.94128
       O    -0.81487   -3.33139   14.16810
      H1    -1.16481   -3.55128   13.27326
       H    -5.55149   -1.77681   14.17419
       O    -5.39130   -1.26725   15.04482
      H1    -5.74542   -1.93373   15.63027
       H     1.74773    1.18925   18.88839
       O     0.83413    1.00311   18.54208
      H1     0.52631    1.91150   18.26637
       H     1.79687   -3.28042   12.40074
       O     1.66810   -2.66596   13.18680
      H1     1.74625   -1.84694   12.63025
       H    -0.88129   -0.46008   13.80537
       O    -0.12701   -0.12788   14.23649
      H1    -0.15632   -0.58793   15.06360
       H    -0.29822   -4.81663   18.20381
       O    -0.19544   -5.70413   18.64376
      H1    -0.91780   -6.16906   18.25608
       H     2.80126    2.46416   17.54476
       O     3.29197    2.15053   16.77720
      H1     3.44436    2.98446   16.27041
       H    -2.46494   -3.20738   19.87672
       O    -1.60693   -2.70269   19.60685
      H1    -1.81806   -2.51488   18.69099
       H    -0.94259   -3.61649   15.81504
       O    -0.73381   -3.83522   16.72558
      H1    -0.19399   -3.03879   16.93455
       H     0.51459   -6.04214   14.60655
       O    -0.43021   -5.97348   14.44749
      H1    -0.64213   -5.02400   14.53158
       H    -3.85069    0.17796   15.56510
       O    -3.65160    0.92482   16.16657
      H1    -4.01977    1.64281   15.66503
       H    -2.53134    0.50647   10.65140
       O    -1.80404   -0.13474   10.93910
      H1    -1.04328    0.45793   11.17524
       H    -3.21668   -5.22165   19.33292
       O    -3.42842   -5.81669   18.54661
      H1    -2.92621   -6.59545   18.73089
       H    -2.62645   -0.70081   12.55174
       O    -3.00169   -0.46555   13.41750
      H1    -3.71896   -1.09456   13.50388
       H    -6.98485    0.92805   16.44018
       O    -7.40735    0.64094   15.62880
      H1    -6.83216   -0.01202   15.23379
       H     2.31152    2.18590   13.48774
       O     1.66343    2.91453   13.23634
      H1     1.81379    3.52937   13.95370
       H     1.74499   -4.80552   17.96030
       O     2.48260   -4.41720   18.42017
      H1     3.27578   -4.79085   17.91619
       H     3.79206   -2.75580   16.06614
       O     4.02379   -3.57495   15.63753
      H1     4.77153   -3.35379   15.04101
       H    -4.90860    3.89851   19.61040
       O    -5.15014    2.99178   19.89520
      H1    -5.63005    2.67226   19.10766
       H    -3.12114   -5.65342   15.94384
       O    -3.76232   -5.86808   15.26082
      H1    -4.61895   -5.70063   15.71485

