90
frame 3 | Written by MDAnalysis XYZWriter (release 2.4.3)
       H    -1.75248  -14.91874    2.09620
       O    -2.11355  -14.04275    1.84054
      H1    -2.54863  -13.79968    2.68879
       H     0.99389  -12.59197   -4.59885
       O     1.52791  -12.88904   -3.82411
      H1     1.01862  -13.58902   -3.39740
       H     2.16259  -14.07882    7.34891
       O     1.21004  -14.02975    7.30778
      H1     1.03151  -14.26128    6.36506
       H    -1.40730  -15.46491    8.22223
       O    -1.01586  -15.80475    7.41158
      H1    -0.19487  -15.27379    7.51393
       H    -0.95423   -9.61390    5.55396
       O    -1.58560   -9.52076    4.84843
      H1    -1.33586   -8.60743    4.54063
       H    -2.12750  -13.43621   -1.40520
       O    -2.61500  -13.78951   -2.17088
      H1    -2.84176  -12.94071   -2.61512
       H     0.83038  -12.86114    2.13574
       O     0.53767  -13.63716    1.78023
      H1    -0.44533  -13.67659    2.05284
       H    -1.39914  -16.53207   -3.03379
       O    -1.33608  -15.93970   -3.75374
      H1    -1.61122  -15.07730   -3.38312
       H    -1.49509  -12.32394    3.83187
       O    -1.01030  -11.60931    3.31802
      H1    -1.20823  -10.84882    3.93028
       H     1.13647  -17.33492   -2.70660
       O     2.01798  -17.16939   -2.28280
      H1     2.46778  -16.63173   -2.96468
       H     2.76134  -16.66245   -0.42793
       O     3.02378  -15.86414    0.01238
      H1     2.39005  -15.22773   -0.47649
       H     3.46597  -17.89750    4.70806
       O     3.44136  -16.92647    4.56018
      H1     3.90460  -16.49660    5.29069
       H    -2.74693  -18.54827    1.32393
       O    -3.25718  -18.32295    2.15708
      H1    -2.52771  -18.31605    2.78328
       H     2.77515   -9.83885    1.55458
       O     2.54920  -10.60396    2.12885
      H1     3.31551  -10.72923    2.68882
       H    -1.38700  -12.99321    0.48614
       O    -1.05740  -12.69795   -0.37028
      H1    -0.40661  -13.39417   -0.64589
       H     5.26525  -15.59112    1.60518
       O     5.40123  -15.88431    2.52292
      H1     4.58882  -16.25419    2.82953
       H    -0.85427  -14.38535    4.51155
       O    -0.38225  -13.68291    4.93047
      H1    -0.01417  -13.27001    4.10353
       H     5.92729  -11.66644    3.28563
       O     5.38077  -10.91851    3.42756
      H1     5.43096  -10.53774    2.50691
       H    -0.48303  -17.38881    0.68776
       O    -0.39338  -16.45181    0.52190
      H1     0.47359  -16.33716    0.88067
       H    -2.62174  -15.02801    6.37197
       O    -3.58023  -14.76499    6.60143
      H1    -3.66314  -13.91942    6.12821
       H    -0.87830  -11.10421    0.47701
       O    -0.40502  -10.28631    0.62779
      H1    -0.21693  -10.39772    1.58503
       H     1.41443  -13.70702   -0.60744
       O     1.09811  -14.29649   -1.28257
      H1     0.61654  -14.97307   -0.71519
       H     1.04764   -9.19148    3.41014
       O     1.17831   -8.34083    3.82602
      H1     1.07907   -7.74956    3.04310
       H    -3.47198  -16.85268    0.89287
       O    -3.68327  -16.00213    0.39022
      H1    -3.09477  -15.37166    0.81963
       H    -3.47482  -12.01627    4.71801
       O    -3.56942  -12.85965    4.21473
      H1    -4.09872  -12.57348    3.47544
       H     2.30450  -18.01963    2.28907
       O     1.80074  -17.15515    2.43452
      H1     2.26720  -16.76417    3.21596
       H     3.47866  -12.19116   -1.98875
       O     3.02021  -11.36755   -1.70504
      H1     2.11661  -11.60701   -2.01042
       H    -1.62046  -16.55376    4.21980
       O    -1.87032  -15.62425    3.94992
      H1    -2.68770  -15.53151    4.47874
       H    -0.03758  -19.78700    3.41655
       O    -0.36106  -18.86588    3.42026
      H1     0.45478  -18.40004    3.07140
       H     0.26841   -9.01349   -0.33647
       O     0.32133   -8.12152   -0.84679
      H1    -0.59265   -7.80496   -0.88378

