90
frame 6 | Written by MDAnalysis XYZWriter (release 2.4.3)
       H     9.02718  -11.99486    9.55238
       O     9.22239  -12.86218    9.13777
      H1     8.61725  -13.46708    9.64427
       H    11.66351  -16.66872   12.13751
       O    12.15149  -17.03531   11.40626
      H1    11.56665  -17.64556   10.96138
       H     6.90001  -17.86961   14.88801
       O     6.98164  -16.89521   14.90629
      H1     6.11097  -16.54748   14.51510
       H     7.67912  -17.98210   17.54611
       O     8.58661  -17.74076   17.86732
      H1     8.60107  -16.78505   17.75101
       H     9.02064  -13.79496   13.55650
       O     9.32653  -14.57076   14.00757
      H1     8.90539  -14.58832   14.89668
       H    15.07087  -18.49512   15.02963
       O    14.15939  -18.20794   14.90106
      H1    13.82144  -18.65598   14.07679
       H    12.20631  -13.39059   14.68563
       O    11.59935  -13.41926   15.42624
      H1    10.82633  -13.84305   15.05693
       H    11.43813  -11.78056   14.92642
       O    11.44322  -10.82026   14.90696
      H1    11.54207  -10.69386   13.96551
       H     5.03107  -13.66320   12.41856
       O     5.73217  -14.04793   12.92192
      H1     6.20417  -14.59636   12.29650
       H    16.43750  -16.06012   13.85770
       O    17.18006  -16.32679   13.28367
      H1    17.91887  -16.64952   13.78468
       H    10.15491  -16.03665   13.88937
       O    10.84366  -16.73911   13.96206
      H1    10.40798  -17.50075   13.62580
       H    14.07827  -13.02951   10.31045
       O    14.06714  -12.11334    9.98631
      H1    13.24007  -11.97182    9.56846
       H    10.24025  -12.11773   19.30463
       O    10.84473  -11.77535   18.60583
      H1    10.93281  -12.62180   18.16960
       H     6.91455  -17.53641   11.92112
       O     7.38853  -16.76892   12.22603
      H1     7.28320  -16.65092   13.17761
       H    11.26046  -11.91550   11.80582
       O    11.41438  -10.99562   12.09757
      H1    12.32463  -10.78436   12.19723
       H     7.95779  -15.98405   16.14482
       O     8.44849  -15.20508   16.41348
      H1     7.86320  -14.52549   16.79918
       H     9.27662  -17.36594    9.14534
       O     9.34460  -17.79793    9.97501
      H1     8.77119  -17.33711   10.51528
       H    16.50334  -17.95475   12.64276
       O    16.35031  -18.73363   12.07844
      H1    15.43761  -19.05807   12.27172
       H    14.01364  -13.85885   13.87319
       O    13.37632  -13.37640   13.42591
      H1    13.68793  -12.49765   13.42781
       H     7.52562  -11.59568   13.63025
       O     7.87762  -12.39373   13.12914
      H1     7.15302  -13.02916   13.12434
       H    12.90366  -14.48783   18.39605
       O    12.03622  -14.51229   18.05198
      H1    12.10567  -14.61372   17.08377
       H    12.59612  -14.63024    9.31362
       O    12.39145  -14.91983    8.40650
      H1    12.80471  -14.31157    7.75309
       H     6.12432  -17.21020   17.96078
       O     5.90099  -18.05500   17.45489
      H1     5.46651  -18.62570   18.09500
       H     9.88884  -18.37494   16.79166
       O    10.74706  -18.70196   16.45756
      H1    10.92505  -18.12972   15.71449
       H    13.15243  -16.59954    8.18739
       O    13.67769  -17.34814    7.85102
      H1    13.70388  -17.94673    8.57568
       H    13.25062  -15.56797   11.14133
       O    13.20971  -14.56260   10.94468
      H1    12.91091  -14.27165   11.78944
       H    15.62955  -15.45146   15.34814
       O    15.00256  -15.71188   14.68465
      H1    14.62342  -16.61089   14.92251
       H     7.12856  -15.26101    9.52385
       O     7.35889  -14.65712   10.23941
      H1     7.60236  -15.16158   11.04494
       H     6.27800  -19.30725   13.14475
       O     6.02747  -19.37190   12.22630
      H1     5.17625  -18.87895   12.26933
       H    15.18709  -17.26100   17.20351
       O    16.03536  -17.77925   17.31762
      H1    16.75229  -17.12811   17.42712

