90
frame 3 | Written by MDAnalysis XYZWriter (release 2.4.3)
       H     8.17480  -16.11335    4.57209
       O     8.03525  -15.54547    5.31686
      H1     8.79887  -15.01433    5.29260
       H     2.96897  -18.61090   -1.81914
       O     3.29539  -19.53478   -1.54996
      H1     2.48921  -20.07302   -1.46367
       H     6.10280  -19.08913    6.04256
       O     5.79170  -18.36750    6.53956
      H1     6.52804  -18.22028    7.08815
       H     7.97257  -12.97467    3.25119
       O     8.95392  -12.88247    3.15597
      H1     9.06262  -11.87802    3.22236
       H     9.65153  -16.58608    7.74223
       O     8.72828  -16.56066    7.64937
      H1     8.53013  -16.34485    6.69832
       H    10.72043  -17.18742    0.25762
       O    10.22402  -16.82426    1.06961
      H1    10.07543  -15.88983    0.83208
       H     2.76134  -16.66245   -0.42793
       O     3.02378  -15.86414    0.01238
      H1     2.39005  -15.22773   -0.47649
       H     8.53448  -17.97011    0.62222
       O     7.95573  -18.61109    1.10550
      H1     7.36194  -18.87738    0.34413
       H     4.49675  -17.43891    7.54190
       O     3.96843  -16.95577    8.20734
      H1     4.56242  -17.12207    8.98152
       H    13.47715  -14.77983    2.51928
       O    13.73437  -15.66007    2.92877
      H1    12.85706  -16.03863    3.17737
       H     5.69914  -17.83365   -1.79022
       O     5.51632  -16.96248   -2.20185
      H1     4.87534  -16.53801   -1.58355
       H     3.46597  -17.89750    4.70806
       O     3.44136  -16.92647    4.56018
      H1     3.90460  -16.49660    5.29069
       H     8.69555  -18.31348   -3.02820
       O     8.78223  -18.91954   -2.29129
      H1     9.43410  -19.55854   -2.70735
       H     7.30718  -13.02801    6.48661
       O     7.83399  -12.32675    6.03603
      H1     8.11131  -12.68083    5.17041
       H     5.26525  -15.59112    1.60518
       O     5.40123  -15.88431    2.52292
      H1     4.58882  -16.25419    2.82953
       H     5.92729  -11.66644    3.28563
       O     5.38077  -10.91851    3.42756
      H1     5.43096  -10.53774    2.50691
       H    11.36013  -19.74712    3.56677
       O    12.10655  -19.13610    3.75476
      H1    12.62114  -19.65836    4.38935
       H     6.09792  -13.98796    4.43556
       O     6.52390  -13.63439    3.62839
      H1     6.47619  -14.38779    3.02918
       H    10.06358  -14.18731   -2.10009
       O     9.23875  -13.99120   -1.68403
      H1     8.65115  -14.68998   -1.90733
       H    11.03466  -15.05014    4.53007
       O    10.76701  -14.41710    5.25174
      H1    10.91687  -13.52365    4.95131
       H     6.53058  -16.97946    3.19006
       O     7.47348  -17.40215    3.35448
      H1     7.50386  -17.82235    2.47380
       H     3.90109  -15.57714    7.35978
       O     3.98997  -14.81389    6.75274
      H1     4.98406  -14.85474    6.63239
       H    10.74743  -16.78408    2.73512
       O    11.10535  -16.78904    3.65205
      H1    11.47392  -17.69527    3.66088
       H    10.50423  -19.17723    6.50590
       O    11.29211  -19.57822    6.91289
      H1    11.70561  -18.69287    7.17095
       H     9.41366  -13.61907    1.63738
       O    10.07010  -13.99730    0.99045
      H1     9.57598  -13.90985    0.13347
       H     2.30450  -18.01963    2.28907
       O     1.80074  -17.15515    2.43452
      H1     2.26720  -16.76417    3.21596
       H    -0.03758  -19.78700    3.41655
       O    -0.36106  -18.86588    3.42026
      H1     0.45478  -18.40004    3.07140
       H     6.94733  -14.70228    8.04788
       O     6.40669  -14.08470    7.51833
      H1     5.87488  -13.61486    8.17374
       H     8.02973  -18.11203    5.11658
       O     8.64215  -18.50692    5.81075
      H1     8.63788  -17.89483    6.54116
       H    10.38430  -18.41290   -1.43361
       O    11.27137  -18.20234   -1.11996
      H1    11.64180  -17.80816   -1.91777

