90
frame 2 | Written by MDAnalysis XYZWriter (release 2.4.3)
       H     5.01838   -1.36412    7.68723
       O     5.03375   -2.12330    7.09447
      H1     4.75696   -2.72448    7.84158
       H     1.47851   -1.55974    5.07735
       O     0.87731   -1.54847    4.26601
      H1     0.07863   -1.48167    4.71865
       H     1.34730    0.90891    6.12719
       O     1.26834    0.46931    7.02053
      H1     0.98316    1.20024    7.60118
       H     7.47962    3.07607   11.18591
       O     8.44981    3.05936   11.23471
      H1     8.64064    2.22365   10.75931
       H     6.24822    0.54904    2.41507
       O     7.02075    0.28398    1.89983
      H1     7.73376   -0.02216    2.48165
       H     5.09312    4.64825   10.02388
       O     4.94451    5.28265    9.24519
      H1     4.69234    4.61975    8.60121
       H     0.66157    3.39506    8.46480
       O     1.52436    3.17750    8.70340
      H1     1.44928    3.70320    9.53378
       H     3.51735   -1.10594    9.93649
       O     4.43814   -1.03083    9.60517
      H1     5.03111   -1.25364   10.34855
       H     4.08227    1.98468    7.32667
       O     4.07449    2.83146    7.85053
      H1     3.14486    2.87594    8.13875
       H     1.22861    0.08964    4.00776
       O     1.58628    0.95072    4.13561
      H1     2.45452    0.95108    3.65573
       H     9.98585   -0.89579    5.82972
       O     9.68066   -0.68232    6.72557
      H1     8.89688   -0.16303    6.51176
       H     4.73165   -3.09904    3.02458
       O     3.99046   -2.65719    3.47013
      H1     3.34331   -3.39443    3.47683
       H     6.66851   -2.44029    6.49045
       O     7.49132   -2.72717    6.04634
      H1     7.12935   -3.59209    5.77684
       H     3.66792    3.66200    3.45803
       O     4.54992    3.27261    3.29896
      H1     4.97455    3.56641    4.09093
       H     9.06420    3.03329    2.34162
       O     8.57796    2.97455    1.54138
      H1     7.71394    2.60974    1.88285
       H     4.94267    0.81381    5.42204
       O     4.87115    0.79129    6.40075
      H1     5.80284    0.95057    6.54946
       H     1.53906    2.62825    3.60055
       O     1.88810    3.46893    3.20072
      H1     1.76483    3.19953    2.24953
       H    11.07736    0.48245    7.01037
       O    11.97942    0.92137    6.78500
      H1    12.04622    1.71460    7.31615
       H     9.34796    0.24538   10.61805
       O     8.40779    0.52745   10.57510
      H1     7.84793   -0.14096   10.99249
       H    10.55993   -2.57057    8.71682
       O     9.82642   -2.99662    8.19720
      H1     9.49128   -2.30663    7.55643
       H     1.86396   -0.97295    6.85343
       O     2.07500   -1.95600    6.74289
      H1     3.04486   -2.01842    6.72854
       H     7.47745   -2.61513    9.08053
       O     7.41696   -3.30042    9.75896
      H1     8.27197   -3.62424    9.89237
       H     9.19112    3.56375    4.62631
       O     9.91555    3.24553    3.96337
      H1    10.63531    3.86312    4.25687
       H     8.24579   -1.46189    4.67487
       O     8.66544   -0.95561    3.94065
      H1     9.24750   -1.62968    3.51284
       H     4.89485    4.04685    6.28385
       O     5.40078    4.60018    5.65650
      H1     6.31019    4.41895    5.80799
       H     7.11985    6.65734    7.60607
       O     7.38244    6.33932    8.50207
      H1     6.52900    5.90159    8.72026
       H     8.79267    3.99117    6.44640
       O     8.23876    4.29259    5.75991
      H1     8.51613    5.11347    5.46610
       H     3.38612   -3.61945    9.06564
       O     4.28806   -3.87447    8.85326
      H1     4.75534   -3.35348    9.52537
       H     4.35230   -0.25483    2.79542
       O     4.84397    0.18690    3.52218
      H1     5.07475   -0.60308    3.98211
       H     7.60700    2.34377    6.73073
       O     7.58517    1.54784    6.19617
      H1     7.67348    1.82245    5.25144

