90
frame 3 | Written by MDAnalysis XYZWriter (release 2.4.3)
       H    11.43246   13.54557   12.42595
       O    10.94390   14.03592   11.78031
      H1    10.02033   13.92463   12.14853
       H    12.58890   14.28037   17.63657
       O    13.26344   14.13656   18.25067
      H1    13.58439   15.09214   18.28583
       H     7.60027   14.30518   19.16892
       O     7.44580   15.08823   19.68803
      H1     8.22801   15.67226   19.55738
       H     9.96827   17.40829   16.67650
       O    10.45203   17.22908   17.46664
      H1    11.21991   17.82835   17.32741
       H    11.17751   19.40872   14.98914
       O    11.97274   19.27622   14.39283
      H1    12.66579   19.19188   15.03689
       H    16.77842   16.36403   11.84242
       O    16.04086   16.05796   11.27687
      H1    16.29307   16.41256   10.42361
       H    11.58328   16.43196   11.45141
       O    10.65829   16.77760   11.21491
      H1    10.12339   15.95434   11.37285
       H     8.76847   17.19620   14.32434
       O     9.52810   16.59881   14.33046
      H1    10.19336   17.21662   13.94673
       H    12.15096   15.79517   15.63500
       O    12.90955   16.21259   15.10113
      H1    12.61562   16.31506   14.15917
       H    18.63154   16.19127   13.53360
       O    17.88294   16.72095   13.27846
      H1    17.14780   16.26958   13.76902
       H    18.48335   16.58668   18.11136
       O    19.43277   16.59558   17.96599
      H1    19.76343   17.10587   18.72654
       H     7.75911   14.13757   14.11702
       O     8.53873   14.09794   14.68816
      H1     8.91644   14.96386   14.60157
       H    13.74158   17.36525   18.00805
       O    13.91287   16.75907   18.80003
      H1    14.88975   16.77973   18.91636
       H    13.07665   14.89363   11.42387
       O    13.29530   15.79063   11.10180
      H1    14.21815   15.94707   11.25924
       H    13.04009   12.17876   16.00611
       O    12.99257   11.20894   15.96230
      H1    12.05780   11.22546   15.97099
       H     7.02208   18.25158   12.54560
       O     7.29394   17.97502   13.48186
      H1     6.48227   18.07476   14.02739
       H    10.37923   19.93853   10.07929
       O     9.90017   19.09375    9.95329
      H1    10.33108   18.56495   10.70809
       H    10.71168   15.48572   17.22663
       O    10.91007   14.57253   17.01467
      H1    10.21790   14.13182   17.52806
       H    16.43765   14.40178   11.35010
       O    16.65279   13.46598   11.23955
      H1    17.39879   13.47602   10.62002
       H    13.21315   19.75657   17.57145
       O    13.22352   18.98853   17.03608
      H1    14.17480   18.79572   16.95476
       H    16.48619   17.81726   15.85470
       O    15.63133   18.06762   15.47989
      H1    15.85824   18.89235   15.02380
       H    12.21429   16.85006    9.23802
       O    12.46533   17.68057    8.83467
      H1    11.61961   18.14011    8.68787
       H    13.09284   12.79555   14.08188
       O    12.75152   12.46585   13.23279
      H1    13.01867   11.50296   13.32568
       H    14.77568   15.86619    7.68335
       O    14.42894   15.33006    8.42918
      H1    14.02365   15.87267    9.12585
       H    16.34761   17.95717   19.07775
       O    16.61118   17.02644   18.89656
      H1    16.96787   16.65250   19.70307
       H    14.57557   13.48625   16.72940
       O    14.53520   13.39667   15.76817
      H1    14.48461   14.37726   15.49257
       H    15.49669   16.17334   13.38062
       O    15.56454   15.90409   14.32199
      H1    15.41899   16.79767   14.72865
       H    18.68304   17.58285   14.94258
       O    18.70032   18.11767   15.73729
      H1    19.11981   17.58453   16.41210
       H    13.43958   18.41895   10.32290
       O    13.58557   19.14190   10.99250
      H1    13.81579   18.67799   11.73101
       H     8.72857   13.57650   16.77843
       O     8.19521   13.40210   17.58861
      H1     8.34245   12.44753   17.77217

