90
frame 3 | Written by MDAnalysis XYZWriter (release 2.4.3)
       H    14.10910  -19.06861    2.55855
       O    14.65905  -18.35249    2.29405
      H1    14.08730  -17.55513    2.26701
       H     8.17480  -16.11335    4.57209
       O     8.03525  -15.54547    5.31686
      H1     8.79887  -15.01433    5.29260
       H    12.02168  -13.53658   -2.57948
       O    11.83906  -14.45199   -2.33310
      H1    12.00296  -14.88660   -3.21598
       H     7.97257  -12.97467    3.25119
       O     8.95392  -12.88247    3.15597
      H1     9.06262  -11.87802    3.22236
       H    11.92919  -13.70249    1.22455
       O    12.86274  -13.53613    1.47708
      H1    12.72607  -12.85740    2.14892
       H    11.24195  -17.20113   -3.97379
       O    12.06116  -16.91995   -3.48451
      H1    12.71311  -17.64441   -3.70817
       H    12.74204  -12.23308    0.05270
       O    12.39493  -11.40876   -0.20298
      H1    11.49961  -11.63732   -0.44251
       H     9.20555  -15.01895   -4.61415
       O    10.04476  -15.09636   -5.06032
      H1    10.41271  -14.18599   -4.85996
       H    10.72043  -17.18742    0.25762
       O    10.22402  -16.82426    1.06961
      H1    10.07543  -15.88983    0.83208
       H     6.74688  -16.04097   -3.28271
       O     7.09915  -15.52611   -4.06685
      H1     6.46955  -15.89538   -4.70917
       H     8.53448  -17.97011    0.62222
       O     7.95573  -18.61109    1.10550
      H1     7.36194  -18.87738    0.34413
       H    13.47715  -14.77983    2.51928
       O    13.73437  -15.66007    2.92877
      H1    12.85706  -16.03863    3.17737
       H     5.69914  -17.83365   -1.79022
       O     5.51632  -16.96248   -2.20185
      H1     4.87534  -16.53801   -1.58355
       H     8.69555  -18.31348   -3.02820
       O     8.78223  -18.91954   -2.29129
      H1     9.43410  -19.55854   -2.70735
       H    12.28684  -10.14014    2.86254
       O    12.67083  -11.00597    2.60455
      H1    12.38898  -11.00333    1.64135
       H     7.30718  -13.02801    6.48661
       O     7.83399  -12.32675    6.03603
      H1     8.11131  -12.68083    5.17041
       H     5.26525  -15.59112    1.60518
       O     5.40123  -15.88431    2.52292
      H1     4.58882  -16.25419    2.82953
       H    11.36013  -19.74712    3.56677
       O    12.10655  -19.13610    3.75476
      H1    12.62114  -19.65836    4.38935
       H    15.29965  -18.47946   -0.48428
       O    14.77560  -18.16778   -1.27815
      H1    14.07544  -17.79483   -0.75812
       H     6.09792  -13.98796    4.43556
       O     6.52390  -13.63439    3.62839
      H1     6.47619  -14.38779    3.02918
       H    10.06358  -14.18731   -2.10009
       O     9.23875  -13.99120   -1.68403
      H1     8.65115  -14.68998   -1.90733
       H    11.03466  -15.05014    4.53007
       O    10.76701  -14.41710    5.25174
      H1    10.91687  -13.52365    4.95131
       H     6.53058  -16.97946    3.19006
       O     7.47348  -17.40215    3.35448
      H1     7.50386  -17.82235    2.47380
       H    10.74743  -16.78408    2.73512
       O    11.10535  -16.78904    3.65205
      H1    11.47392  -17.69527    3.66088
       H     9.44987  -10.85619   -1.26321
       O    10.02343  -11.53284   -1.60618
      H1     9.40857  -12.27468   -1.84018
       H    13.11092  -14.07383    7.04242
       O    13.23981  -14.81259    6.47219
      H1    12.38322  -14.94543    6.07186
       H     9.41366  -13.61907    1.63738
       O    10.07010  -13.99730    0.99045
      H1     9.57598  -13.90985    0.13347
       H    13.24364  -15.04825    0.31434
       O    13.84735  -15.42209   -0.32694
      H1    13.34784  -15.27579   -1.17647
       H     8.02973  -18.11203    5.11658
       O     8.64215  -18.50692    5.81075
      H1     8.63788  -17.89483    6.54116
       H    10.38430  -18.41290   -1.43361
       O    11.27137  -18.20234   -1.11996
      H1    11.64180  -17.80816   -1.91777

