90
frame 2 | Written by MDAnalysis XYZWriter (release 2.4.3)
       H     7.37376   16.48885    4.58678
       O     7.00242   15.80321    4.03380
      H1     7.59438   15.08110    4.24145
       H    -0.56547   12.69127   -1.03627
       O    -0.02206   11.96707   -0.77267
      H1     0.43456   11.77457   -1.58144
       H     7.04573   14.55910   -1.72232
       O     7.32159   13.59921   -1.67400
      H1     6.85938   13.20282   -2.37523
       H     7.24169   13.14347    0.49755
       O     7.66323   12.50596    1.06810
      H1     7.16454   12.63529    1.94935
       H     3.40538   15.02439   -2.18301
       O     4.13468   15.65391   -2.29041
      H1     3.67020   16.52108   -2.35011
       H     1.76169   17.88397   -0.75602
       O     1.58956   18.20227    0.13366
      H1     0.63868   18.17272    0.16498
       H     4.37680   13.93884    1.58110
       O     3.57771   13.71237    2.03280
      H1     3.84822   14.22449    2.82929
       H     1.40044   11.49324    2.22702
       O     1.70970   10.61143    2.45466
      H1     1.06077   10.04780    2.00627
       H    -0.18779   13.76351    3.18391
       O    -0.54962   13.91331    4.08568
      H1    -1.42706   14.30087    3.91267
       H     3.73436   12.29140   -1.87256
       O     3.11942   12.74816   -2.52336
      H1     2.52877   12.02487   -2.78211
       H     4.83021   11.26148    0.28393
       O     4.88243   11.59102   -0.58835
      H1     5.77780   12.01240   -0.58441
       H     4.50793    9.67634    2.67644
       O     4.35157   10.28618    1.89863
      H1     3.34767   10.34045    1.93814
       H     1.99076   13.60415   -1.35991
       O     1.35550   14.29137   -1.17212
      H1     0.80595   13.98917   -0.42512
       H     2.20601   14.78628    5.74675
       O     1.48377   14.10435    5.93269
      H1     0.84834   14.32594    5.20734
       H     2.73879   19.25783    1.47275
       O     3.42191   19.52143    2.09190
      H1     4.19243   19.01719    1.88425
       H     6.05138   17.84874    2.93345
       O     5.73606   18.64383    3.29926
      H1     6.01528   18.48312    4.27524
       H     4.70620   12.56759   -3.43344
       O     5.51754   12.79279   -3.94901
      H1     5.67437   11.97143   -4.38569
       H     5.51860   12.90663    7.19356
       O     4.59616   13.18732    7.26746
      H1     4.31202   13.57079    6.40363
       H     5.74129   16.27060   -2.10773
       O     6.66941   16.59144   -2.06846
      H1     6.85338   16.92410   -2.99560
       H     7.43409   11.57981    6.36234
       O     6.93479   12.33811    6.10355
      H1     6.68202   12.09373    5.23285
       H     5.24835   18.67758   -0.86583
       O     5.51049   18.31334   -0.00124
      H1     6.03426   17.50012   -0.16007
       H     6.02166    8.84406   -1.89671
       O     5.26990    8.83241   -1.28181
      H1     5.11160    9.79251   -1.10621
       H     1.25524   16.91515    5.05925
       O     2.21783   16.83396    5.23328
      H1     2.49922   17.74872    5.40658
       H     8.69396    9.34030    0.32015
       O     8.02731    9.31951    1.04188
      H1     7.63316   10.20045    0.85663
       H     7.63149   16.08215    2.07338
       O     7.28892   15.74949    1.24510
      H1     8.12281   15.83682    0.79379
       H     3.63461   15.41224    4.64672
       O     4.34709   14.75341    4.65104
      H1     5.13499   15.31566    4.78041
       H     1.81802   10.90160    4.41324
       O     1.59817   10.56236    5.28756
      H1     0.82583   11.04918    5.51898
       H     0.17749   14.48876    1.52272
       O     0.61472   13.60781    1.61844
      H1     1.56936   13.82411    1.55742
       H     0.96224   16.14424    1.80156
       O    -0.00232   16.05740    1.82768
      H1    -0.30827   16.22000    0.93363
       H     5.27999   11.76523    3.26587
       O     6.14536   12.20478    3.50743
      H1     6.72279   11.43582    3.75070

