90
frame 3 | Written by MDAnalysis XYZWriter (release 2.4.3)
       H    17.01706   -6.91649  -17.05315
       O    16.06612   -6.90550  -17.28497
      H1    15.80079   -7.82627  -17.26741
       H    14.49801   -9.14276  -13.58446
       O    14.36092   -9.40233  -14.48872
      H1    13.94865   -8.71170  -15.00429
       H    18.23921   -6.74373  -15.54186
       O    18.05283   -5.88020  -15.97810
      H1    18.92085   -5.70190  -16.37777
       H    17.75149   -5.50387  -14.12619
       O    17.90972   -5.21754  -13.24397
      H1    17.85190   -4.23731  -13.25305
       H    17.90205    0.32479  -11.15045
       O    18.14553    1.09543  -11.69164
      H1    18.95058    1.44165  -11.34266
       H    14.59525   -0.81892  -11.48898
       O    15.13835   -0.02166  -11.48020
      H1    14.93816    0.31397  -10.57408
       H    14.25495   -4.39849  -10.25579
       O    13.69764   -3.59990  -10.41719
      H1    12.80243   -3.94405  -10.41301
       H    16.25007   -1.06984  -10.53142
       O    17.16799   -1.48840  -10.38035
      H1    16.94009   -2.22529   -9.82105
       H    13.96632   -3.03919  -12.00442
       O    13.97542   -2.52378  -12.83381
      H1    13.18811   -2.93046  -13.31622
       H    17.81554   -9.97898  -13.55636
       O    18.46594  -10.66517  -13.60490
      H1    18.47676  -11.08545  -12.69407
       H    16.19963   -3.66181  -18.44390
       O    16.36740   -3.92596  -19.39317
      H1    16.57346   -4.86754  -19.43193
       H    15.39524   -3.32875  -16.64797
       O    15.69326   -2.60278  -17.19834
      H1    16.58867   -2.43513  -16.84053
       H    18.04220   -1.40293  -15.52681
       O    17.85603   -2.38849  -15.64172
      H1    17.58493   -2.51338  -14.73026
       H    15.42410   -5.75250   -9.69110
       O    15.74536   -5.21528   -8.99315
      H1    16.71705   -5.23922   -9.09965
       H    18.30932   -3.93294   -8.26892
       O    18.17524   -4.11150   -9.20476
      H1    18.90537   -3.62675   -9.67688
       H    18.79268   -7.24486   -8.99432
       O    18.40369   -7.44104   -9.91839
      H1    18.79785   -6.90653  -10.57301
       H    17.30055   -2.07848  -12.10980
       O    17.09424   -2.56545  -12.91422
      H1    16.14607   -2.53978  -12.98663
       H    14.77068   -2.60534   -7.74972
       O    15.79578   -2.51315   -7.84391
      H1    15.84547   -3.38843   -8.30640
       H    14.98266   -5.54984  -13.91535
       O    15.40724   -6.03523  -13.15626
      H1    16.27556   -5.59473  -13.20623
       H    14.05889   -5.08194  -16.13100
       O    14.86177   -4.87500  -15.60655
      H1    15.41833   -5.63718  -15.81751
       H    17.43857  -10.31730   -9.06587
       O    16.94118   -9.59968   -9.55048
      H1    17.61462   -8.87174   -9.54257
       H    19.82934   -4.35431  -17.45950
       O    19.60517   -3.43884  -17.72691
      H1    19.21294   -3.07558  -16.90122
       H    17.42121   -7.83031  -13.58802
       O    17.63285   -8.13793  -14.50877
      H1    18.56829   -8.38723  -14.28039
       H    12.42155   -0.74445  -13.85544
       O    12.51117   -0.58250  -14.80042
      H1    13.41366   -0.84817  -15.07033
       H    15.51596    0.06089  -15.45056
       O    14.86605   -0.06911  -16.17731
      H1    15.21992   -0.89312  -16.60609
       H    19.29926   -1.40680   -9.22555
       O    19.78399   -1.77280   -8.42336
      H1    19.25438   -1.56405   -7.61827
       H    14.53652   -6.47004  -11.83754
       O    14.19983   -6.52624  -10.89674
      H1    14.42772   -7.37841  -10.49182
       H    12.56457   -7.36290  -11.72651
       O    12.01886   -7.93811  -12.31886
      H1    12.29125   -8.80764  -11.93530
       H    16.07669    0.28872  -12.95779
       O    16.42374    0.32010  -13.87120
      H1    17.25541    0.80481  -13.70687
       H    19.33864   -0.39970  -16.87422
       O    19.02337    0.00774  -16.00466
      H1    19.89631    0.06307  -15.56649

