90
frame 3 | Written by MDAnalysis XYZWriter (release 2.4.3)
       H   -12.80590  -16.78599   -7.27136
       O   -13.25986  -15.98319   -7.29695
      H1   -12.83013  -15.53403   -6.59258
       H   -14.99666  -13.50903   -8.40552
       O   -15.76228  -13.45023   -7.82835
      H1   -16.00078  -14.39796   -7.78172
       H   -12.71212  -14.92778  -13.43636
       O   -12.15419  -15.47971  -13.97218
      H1   -12.54192  -16.36370  -13.74974
       H   -11.98165   -9.59557  -10.77670
       O   -12.35315   -9.40827  -11.69991
      H1   -12.83412  -10.23222  -11.73695
       H    -8.91806  -11.54759  -13.71324
       O    -8.24443  -12.12416  -14.06970
      H1    -7.95716  -11.49321  -14.79658
       H   -12.44529  -12.65548   -8.95218
       O   -13.05741  -13.34923   -8.95721
      H1   -12.53727  -14.21494   -8.91171
       H   -10.34683  -18.24542   -9.84248
       O    -9.68454  -17.50350   -9.92823
      H1   -10.14801  -16.71860   -9.56024
       H   -14.20006  -17.59070  -13.53890
       O   -13.32190  -17.78089  -13.16797
      H1   -13.50900  -17.45355  -12.19632
       H   -16.76016  -13.34996  -13.68946
       O   -16.36401  -13.43131  -12.84774
      H1   -15.50265  -13.60493  -13.22904
       H   -16.15456  -13.05617  -16.77214
       O   -15.73467  -13.50538  -16.04588
      H1   -15.68914  -14.47005  -16.21941
       H   -14.44624  -12.54820  -16.50017
       O   -13.67883  -11.96020  -16.61897
      H1   -13.49089  -11.47246  -15.81478
       H   -11.21960  -11.72912  -12.57885
       O   -10.66718  -10.99198  -12.95127
      H1   -11.11918  -10.23913  -12.46532
       H   -15.84426   -9.44963  -12.90306
       O   -15.16053   -9.13585  -13.46357
      H1   -14.54883   -8.81364  -12.82735
       H   -14.54290  -10.28935   -9.85241
       O   -15.10092  -10.23256   -9.03699
      H1   -14.79366   -9.43034   -8.62890
       H   -12.45459  -10.46925   -8.58043
       O   -11.82477  -10.59956   -9.33577
      H1   -11.02107  -10.47517   -8.85544
       H   -14.09964  -12.39891  -11.90842
       O   -14.06464  -11.44155  -12.01350
      H1   -14.58837  -11.28592  -12.84840
       H    -9.61639  -13.01665  -15.56619
       O    -9.45282  -12.92684  -16.48500
      H1    -9.96961  -13.57627  -16.96105
       H   -11.37682  -13.00350   -5.22200
       O   -11.26443  -12.72017   -6.13442
      H1   -12.12430  -12.42188   -6.41880
       H   -18.47915  -13.85552   -8.43177
       O   -18.29757  -13.57988   -9.37140
      H1   -17.59921  -12.96760   -9.28728
       H   -11.97284  -10.45339  -14.06454
       O   -12.25395  -10.09349  -14.89570
      H1   -11.42715  -10.06715  -15.38843
       H   -12.92619  -13.58811  -11.59134
       O   -13.57342  -14.06565  -12.18464
      H1   -13.88835  -14.65244  -11.50232
       H   -15.50376  -16.97293  -15.50134
       O   -15.49296  -17.05465  -14.55081
      H1   -15.99624  -17.83997  -14.31839
       H   -10.09578  -12.88718  -11.48568
       O   -10.90924  -13.39162  -11.34662
      H1   -10.75370  -14.22708  -11.81635
       H   -16.96806  -11.82231  -12.45132
       O   -17.24734  -10.88394  -12.46246
      H1   -17.73453  -10.71840  -11.61483
       H   -17.13111  -15.26809  -11.92916
       O   -17.71244  -15.59558  -11.24688
      H1   -17.81305  -14.89324  -10.58479
       H   -14.81215  -16.35593  -10.26204
       O   -13.94111  -16.44849  -10.69524
      H1   -13.42129  -15.98682  -10.02152
       H   -12.83753  -13.47368  -16.57489
       O   -12.29219  -14.30822  -16.52869
      H1   -12.30535  -14.53607  -15.55503
       H   -14.25032  -11.81862   -7.51978
       O   -13.61660  -11.44437   -6.88293
      H1   -14.03472  -11.37895   -6.01559
       H   -10.54046  -14.79548   -8.38000
       O   -11.00174  -15.11792   -9.13942
      H1   -10.88073  -14.43517   -9.84325
       H    -9.10252  -15.74775  -15.33467
       O    -9.62888  -16.15987  -14.57204
      H1   -10.41932  -15.65056  -14.67015

