90
frame 3 | Written by MDAnalysis XYZWriter (release 2.4.3)
       H    -3.01285   -4.19519   -0.62247
       O    -3.08940   -4.88472    0.07650
      H1    -3.90130   -4.62908    0.51489
       H    -0.47494   -1.06102   -0.19520
       O    -1.18056   -1.53872    0.36963
      H1    -1.87455   -0.87018    0.34090
       H    -3.02764   -7.92379   -3.71367
       O    -2.62019   -7.10734   -3.47034
      H1    -3.41687   -6.55286   -3.44938
       H    -2.58479    0.12269   -5.22442
       O    -2.24901   -0.50145   -4.53948
      H1    -1.37387   -0.13007   -4.35950
       H     0.89267   -5.28266   -1.44104
       O     0.07872   -5.42864   -2.04147
      H1    -0.25177   -4.52269   -2.13085
       H    -6.35403   -6.34037   -3.06398
       O    -5.98176   -6.52069   -2.13676
      H1    -5.30001   -5.84283   -2.02891
       H    -3.70266   -0.66241   -3.42006
       O    -4.11445   -0.63369   -2.53265
      H1    -3.48931   -0.10569   -2.00328
       H     2.23724   -5.07580   -2.69557
       O     2.45702   -4.19636   -3.03419
      H1     2.99653   -3.85422   -2.25180
       H     3.68876   -2.78311   -0.60792
       O     3.20440   -3.61737   -0.51183
      H1     3.80922   -4.09336    0.08875
       H    -5.58164   -1.05950    3.63183
       O    -5.24100   -1.68694    2.99800
      H1    -5.53165   -1.30115    2.14331
       H    -5.06525   -3.37752    2.34840
       O    -5.16379   -4.32149    2.02683
      H1    -4.64397   -4.77061    2.73013
       H    -2.41141   -7.12533   -1.67461
       O    -2.61147   -7.43506   -0.81107
      H1    -2.71922   -6.60264   -0.40081
       H    -7.18422   -2.71219    0.62975
       O    -6.61212   -1.97119    0.47391
      H1    -6.26072   -2.34532   -0.34591
       H    -0.08634   -6.07487   -3.95853
       O    -0.38510   -6.40497   -4.82351
      H1    -1.04841   -7.06813   -4.56679
       H    -3.26593   -1.72493   -5.11838
       O    -3.79812   -2.52043   -5.31079
      H1    -4.59726   -2.09483   -5.73527
       H    -2.27355   -1.18078    4.47587
       O    -2.05272   -2.09412    4.77093
      H1    -2.20602   -2.49439    3.88626
       H    -0.20584   -2.11175    1.79154
       O     0.52480   -2.42617    2.33043
      H1     0.43205   -1.91673    3.15550
       H    -2.46156   -4.34111    2.00331
       O    -2.39195   -4.02640    2.92724
      H1    -1.90846   -4.78387    3.35141
       H     2.39625    2.46187    0.12260
       O     1.82855    1.87127    0.61953
      H1     1.37781    1.33869   -0.10815
       H    -5.09537   -2.10571   -2.40826
       O    -5.80895   -2.83325   -2.23762
      H1    -5.49011   -3.43066   -2.91964
       H    -2.55803   -3.80507   -5.73615
       O    -2.04401   -4.50387   -6.13538
      H1    -1.49316   -4.82545   -5.39180
       H    -3.27381   -4.24704   -2.74258
       O    -3.96681   -4.65218   -3.27533
      H1    -3.93700   -4.08214   -4.05460
       H     1.69767   -3.84797    0.12584
       O     0.76832   -4.14128    0.14179
      H1     0.51413   -3.65437    0.95061
       H     1.43328   -1.61666   -4.17923
       O     2.26001   -1.11057   -4.34793
      H1     2.42842   -1.47575   -5.26665
       H     0.76892   -3.11537   -3.47536
       O    -0.06951   -2.67742   -3.71502
      H1    -0.16237   -2.93448   -4.63730
       H     0.82578    0.99137   -4.01169
       O     0.01772    1.05192   -3.56559
      H1    -0.27769    1.91466   -3.86402
       H    -3.44315    1.06496    1.53043
       O    -3.41549    0.85812    0.56585
      H1    -3.54901    1.79746    0.22408
       H     0.37966    0.16927   -1.93546
       O     0.79431   -0.05275   -1.05702
      H1     1.47788   -0.74723   -1.17654
       H    -0.00560   -7.26840    0.90117
       O     0.13483   -6.61323    1.61007
      H1     0.45270   -5.85077    1.11684
       H    -1.37166   -2.86710   -2.41567
       O    -2.04926   -3.14515   -1.76748
      H1    -1.73811   -2.59919   -0.97043

