90
frame 3 | Written by MDAnalysis XYZWriter (release 2.4.3)
       H     1.25884    4.52145   -9.36239
       O     0.50404    4.92860   -8.80594
      H1    -0.04993    5.28723   -9.56537
       H    -1.49372    0.41301  -13.79100
       O    -1.40983   -0.22346  -13.02694
      H1    -2.20904   -0.07422  -12.48380
       H    -3.56126    2.03312  -18.08134
       O    -3.15710    1.48385  -17.45642
      H1    -2.40281    1.25371  -17.96174
       H    -3.55492    3.62712  -12.99016
       O    -4.07680    3.97816  -13.68093
      H1    -4.84495    3.35330  -13.79908
       H    -3.20362    8.68066  -11.90001
       O    -2.50860    9.32917  -11.90096
      H1    -2.61025    9.81751  -11.02551
       H    -5.30601    1.61449  -14.96210
       O    -6.23080    1.82312  -14.78251
      H1    -6.64369    1.93224  -15.64707
       H    -6.12683    6.24494  -15.57895
       O    -6.13699    6.78915  -14.81903
      H1    -6.45812    6.13653  -14.17321
       H    -5.78428   -1.40804  -14.43956
       O    -6.29597   -0.88314  -15.09300
      H1    -6.16097   -0.00438  -14.69323
       H     0.67549    4.61346  -13.25122
       O     0.61248    4.84492  -12.27362
      H1     0.73463    3.98687  -11.85628
       H    -2.86921    7.69102  -15.07066
       O    -3.76589    8.16695  -14.86701
      H1    -4.35636    7.44429  -14.74301
       H    -1.73523    3.86245  -10.71488
       O    -2.11162    3.08948  -11.20226
      H1    -2.76252    2.80600  -10.49846
       H     1.29495    2.21613  -13.30648
       O     1.90036    2.59063  -13.97059
      H1     1.31598    2.93178  -14.67086
       H    -0.19803    0.87964  -12.18790
       O     0.11926    1.79731  -12.08755
      H1    -0.80337    2.11436  -11.78492
       H    -7.62801    4.41062  -12.44226
       O    -7.29927    5.26103  -12.15418
      H1    -8.17248    5.76075  -12.16724
       H    -3.19989    1.06038  -15.56789
       O    -3.52701    1.25076  -14.68231
      H1    -3.61074    2.23551  -14.70074
       H    -4.63400    6.33336  -12.39422
       O    -4.30595    7.04871  -11.77528
      H1    -5.17419    7.54444  -11.59840
       H    -5.07260    5.23732   -7.59483
       O    -6.03373    5.22062   -7.83271
      H1    -5.99254    5.07038   -8.78244
       H    -3.97510   -0.53260  -11.99784
       O    -3.56364    0.09506  -11.42089
      H1    -4.19826    0.84263  -11.65217
       H    -8.35013    1.93154  -12.11532
       O    -7.92004    2.63590  -12.63350
      H1    -7.34894    2.19065  -13.29862
       H    -6.02579    4.93378  -10.98073
       O    -5.18186    4.77015  -10.48561
      H1    -4.58895    5.38298  -10.97161
       H    -1.48337    7.83102  -16.45286
       O    -1.13105    7.61298  -15.52630
      H1    -0.73352    8.42633  -15.17853
       H    -6.47930    2.92489   -9.03614
       O    -7.18195    2.28129   -8.90292
      H1    -7.97136    2.75331   -9.20547
       H    -2.09434    6.70407  -10.86660
       O    -1.76479    5.97239  -10.28346
      H1    -1.84442    6.35311   -9.35463
       H     0.82635    5.01567  -15.71573
       O     0.10630    4.99266  -15.04237
      H1    -0.15314    5.91403  -14.96847
       H    -2.12759    1.11381   -8.81039
       O    -3.05393    1.37927   -8.95711
      H1    -3.19816    0.77085   -9.74774
       H    -3.90346   -1.92209  -13.68077
       O    -4.63435   -1.72190  -13.05965
      H1    -4.71517   -2.58449  -12.63646
       H    -0.95329    3.68446  -16.36809
       O    -0.84187    2.86517  -16.88702
      H1    -1.80101    2.56391  -17.00778
       H    -5.29342    3.15275  -11.23497
       O    -5.27256    2.27475  -11.62022
      H1    -5.87690    1.82532  -11.05322
       H    -0.00568    1.17096  -15.94126
       O     0.49738    0.36424  -15.85672
      H1     0.16119   -0.24140  -16.53374
       H    -3.54677    4.71987  -15.38640
       O    -2.87121    5.03963  -16.00784
      H1    -2.02083    5.11296  -15.52717

