90
frame 3 | Written by MDAnalysis XYZWriter (release 2.4.3)
       H     6.92387  -17.26555  -10.73561
       O     7.81254  -17.72239  -10.84533
      H1     8.33155  -17.23909  -10.14232
       H    -1.19525  -14.92446   -9.78693
       O    -1.41359  -13.98183   -9.82523
      H1    -2.27058  -13.93129  -10.25016
       H     6.46888  -19.46230  -14.17094
       O     5.70350  -19.33111  -13.61837
      H1     5.13384  -18.80152  -14.31096
       H     1.90590  -16.25316   -9.56478
       O     1.75328  -16.72775   -8.79959
      H1     1.77190  -16.02481   -8.12922
       H     5.11736  -17.37922  -16.39746
       O     4.50327  -17.66621  -15.70768
      H1     4.46636  -16.78933  -15.20763
       H     4.19474  -17.20466   -9.39073
       O     5.02550  -16.80416   -9.64024
      H1     4.60230  -16.05811  -10.13437
       H     4.88732  -19.52888   -6.89516
       O     5.10845  -18.68010   -7.28998
      H1     5.78577  -18.93121   -7.97231
       H     3.60619  -14.86128  -14.39012
       O     3.91361  -15.56399  -13.74859
      H1     4.81067  -15.31839  -13.51856
       H     2.43277  -12.97104  -11.95387
       O     3.41410  -12.90887  -11.94585
      H1     3.64977  -13.22378  -12.83309
       H     8.12739  -14.91233   -7.33252
       O     9.05553  -15.23568   -7.52251
      H1     9.45377  -15.30718   -6.60031
       H     9.27744  -17.50340  -13.90902
       O     8.56338  -16.90620  -13.57846
      H1     8.75200  -16.88829  -12.63448
       H     3.12711  -15.50477  -12.19707
       O     2.79741  -16.00568  -11.41612
      H1     2.77181  -16.92355  -11.75147
       H     3.76036  -12.93531   -9.14495
       O     4.13587  -12.94664   -8.29804
      H1     4.88841  -13.50639   -8.38867
       H     6.74688  -16.04097   -3.28271
       O     7.09915  -15.52611   -4.06685
      H1     6.46955  -15.89538   -4.70917
       H     0.72380  -16.85217  -13.86512
       O     0.27276  -16.51451  -13.05267
      H1     1.02171  -16.04159  -12.65991
       H     2.94913  -14.08598   -7.69684
       O     2.36849  -14.62825   -7.09516
      H1     1.68007  -14.01348   -6.82254
       H     6.54278  -14.72814  -11.96726
       O     6.46420  -15.11520  -12.90903
      H1     7.21392  -15.74174  -12.88782
       H     6.67986  -13.67484   -6.97712
       O     6.47389  -14.30079   -7.62782
      H1     6.06233  -14.98697   -7.14548
       H     8.59703  -20.11808   -6.73858
       O     8.03794  -19.37575   -6.35943
      H1     7.65594  -18.96598   -7.14617
       H    -0.40629  -18.35582   -9.82362
       O    -0.58129  -18.11926   -8.91161
      H1     0.19499  -17.60394   -8.73709
       H     3.84970  -12.55109   -5.78799
       O     3.94969  -11.66740   -5.36162
      H1     3.08447  -11.47175   -4.94500
       H     3.55257  -14.78093   -3.94824
       O     2.99271  -15.47376   -4.35814
      H1     2.54611  -14.92415   -5.01662
       H     2.24145  -18.76256  -11.55417
       O     3.08339  -18.69332  -12.05701
      H1     3.76342  -18.85385  -11.40149
       H    -0.34388  -19.53793  -11.68599
       O     0.12705  -18.79336  -11.32120
      H1    -0.03689  -18.00835  -11.90823
       H     0.69808  -12.65685  -12.31052
       O     0.63784  -13.56524  -11.95154
      H1    -0.13804  -13.53729  -11.34148
       H    -0.59174  -15.47271   -6.23191
       O    -0.76359  -15.38372   -7.19673
      H1    -1.35374  -14.61427   -7.24494
       H     3.90472  -10.62264  -10.01073
       O     3.19826  -10.59421   -9.36554
      H1     3.52888  -11.11374   -8.64901
       H     4.89298  -17.28461   -6.25531
       O     5.11657  -16.36270   -5.97418
      H1     4.26213  -16.01899   -5.56131
       H     6.92834  -13.28821  -10.50514
       O     6.55928  -14.18304  -10.38407
      H1     6.55451  -14.27445   -9.45254
       H     3.83051  -19.58102   -3.18998
       O     3.96530  -19.37578   -4.15797
      H1     4.60492  -18.69469   -4.21767

