90
frame 3 | Written by MDAnalysis XYZWriter (release 2.4.3)
       H     8.32565    9.73503    2.42663
       O     8.65941    9.32346    3.25477
      H1     9.42559    9.85177    3.59599
       H     4.73364    8.43084   -3.43726
       O     4.47421    7.72798   -4.07163
      H1     3.80459    8.17914   -4.67037
       H     7.01267   14.20093   -1.87116
       O     7.24717   13.27737   -2.09099
      H1     6.77811   12.97550   -2.91586
       H     7.71365   13.39477    0.69866
       O     7.68422   12.44329    1.00045
      H1     7.38948   12.58421    1.94097
       H    10.78668    7.18743   -4.64762
       O     9.84674    7.12837   -4.53707
      H1     9.74638    6.15451   -4.54265
       H     6.01844    5.28419    1.18355
       O     6.18974    5.40310    2.14818
      H1     5.48343    4.90804    2.62149
       H     5.14824   11.57943    0.24130
       O     4.95466   11.81511   -0.70070
      H1     5.80611   12.23901   -1.01236
       H     4.39784   10.89532    2.44318
       O     5.00473   11.44982    1.95526
      H1     4.54212   12.27752    1.82100
       H     4.92527    5.98567   -2.72593
       O     4.66505    5.77071   -1.81821
      H1     5.48157    5.99744   -1.38809
       H    11.74760    8.08728    2.23370
       O    12.54172    8.69762    2.06991
      H1    12.50255    8.67483    1.07832
       H     9.40676    4.99987    0.02836
       O    10.21744    5.49483    0.00828
      H1    10.84795    5.01167    0.56117
       H     6.83230    7.81398    0.20646
       O     6.77915    7.01284   -0.35981
      H1     7.66637    6.67851   -0.24822
       H     7.76049    7.63747    4.24174
       O     7.67067    6.71456    4.20486
      H1     6.79399    6.65889    3.78294
       H     7.47337    3.60028    0.99510
       O     8.01741    3.75208    0.17675
      H1     7.26900    3.56847   -0.45070
       H     2.25488    6.81457    0.89737
       O     2.33245    6.05811    1.50448
      H1     1.84709    6.32574    2.27013
       H    10.30114    6.67343    1.75267
       O    10.42485    7.03524    2.61579
      H1     9.66147    7.53637    2.81601
       H     9.20796    9.31527   -1.44169
       O     9.74369    9.38980   -0.62717
      H1    10.11332   10.27714   -0.59272
       H     4.39455    9.21466    4.30487
       O     4.12188    9.30571    3.41401
      H1     4.73588    8.83693    2.87149
       H     9.40327   12.44181    0.94446
       O    10.34464   12.33251    1.02543
      H1    10.62164   13.25849    1.32931
       H     8.18231    9.78637   -3.27835
       O     8.13346    9.03945   -2.69124
      H1     8.72023    8.50470   -3.23552
       H     6.08406    9.16447   -2.07494
       O     5.15276    9.44899   -2.04155
      H1     5.18653   10.30074   -1.55438
       H     7.97747    9.95823    0.42783
       O     7.21875    9.65662    0.96116
      H1     6.70464   10.47899    0.98334
       H     3.75370    8.28734   -0.97954
       O     3.02513    7.65645   -0.82605
      H1     3.64964    6.86272   -1.02966
       H    11.57939    8.52302   -0.63030
       O    12.51922    8.69397   -0.80290
      H1    12.98262    7.92743   -0.44432
       H     8.81440    3.41740    3.37183
       O     9.40933    2.99677    2.74882
      H1     8.69925    2.38979    2.41428
       H     3.86602    4.06050   -1.56888
       O     3.43353    3.25813   -1.24996
      H1     4.10650    2.58767   -1.07829
       H     0.82361    7.53819   -2.74359
       O     1.31867    8.34978   -2.79959
      H1     2.09321    8.14287   -2.21329
       H     7.00491    6.75984    5.68517
       O     6.50465    6.68926    6.47557
      H1     5.91821    5.90948    6.44179
       H     8.60504    4.63036    5.70787
       O     8.14028    4.14478    4.89337
      H1     7.85731    4.87418    4.33998
       H     6.23181   11.29325    3.33356
       O     7.09528   11.62193    3.60522
      H1     7.58367   10.80522    3.53612

