90
frame 3 | Written by MDAnalysis XYZWriter (release 2.4.3)
       H    -2.00683  -10.22742  -14.19330
       O    -1.66457   -9.49282  -13.63633
      H1    -2.21142   -9.65104  -12.83944
       H    -5.07469   -7.77219  -10.38772
       O    -5.42161   -7.74204   -9.50858
      H1    -5.24011   -6.80473   -9.25611
       H    -4.12398  -12.56157  -15.76152
       O    -4.80791  -13.18042  -16.05954
      H1    -5.50861  -12.55526  -16.33722
       H    -5.48617  -13.84618  -14.17765
       O    -5.83087  -13.83057  -13.28676
      H1    -6.60452  -13.26911  -13.33633
       H    -1.19525  -14.92446   -9.78693
       O    -1.41359  -13.98183   -9.82523
      H1    -2.27058  -13.93129  -10.25016
       H    -2.28596  -11.50426  -15.90607
       O    -2.78436  -11.53734  -15.06426
      H1    -2.26716  -12.30688  -14.66326
       H    -2.24833  -11.48462  -18.37027
       O    -1.67627  -11.27353  -17.60613
      H1    -1.11086  -12.02809  -17.59712
       H    -1.52374  -10.66027   -8.03662
       O    -1.52839  -10.98444   -8.92257
      H1    -1.50555  -11.94935   -8.89643
       H     2.43277  -12.97104  -11.95387
       O     3.41410  -12.90887  -11.94585
      H1     3.64977  -13.22378  -12.83309
       H     0.09810  -13.87064  -16.54824
       O     0.09680  -13.68151  -15.61040
      H1    -0.32152  -14.51956  -15.24877
       H    -2.52499   -5.02817  -10.21117
       O    -2.57134   -5.59074   -9.41980
      H1    -3.34203   -5.15680   -8.97758
       H    -1.66243   -7.86341  -13.64386
       O    -1.31187   -6.92726  -13.45569
      H1    -0.43813   -7.11152  -13.01943
       H     2.22317   -9.72288  -10.67060
       O     1.42556   -9.56852  -11.15523
      H1     1.56818   -8.69799  -11.50664
       H     2.01033   -6.53322  -12.37398
       O     1.85455   -7.42198  -12.74587
      H1     2.71091   -7.54253  -13.19480
       H    -6.55270   -9.46780  -13.20973
       O    -7.51009   -9.29297  -13.18693
      H1    -7.60922   -8.32669  -12.92252
       H    -2.30321   -9.75047  -10.23743
       O    -2.81857   -9.60226  -11.11039
      H1    -3.00743   -8.70381  -10.96775
       H    -3.58072   -8.80230  -14.24486
       O    -4.47972   -9.15398  -14.06823
      H1    -4.81124   -9.30075  -14.96879
       H    -2.12696  -14.37713  -13.03249
       O    -1.84382  -13.55531  -13.40568
      H1    -0.85863  -13.57934  -13.32342
       H    -5.21085  -11.75333   -9.78166
       O    -5.77573  -11.16619   -9.33657
      H1    -5.10578  -10.71013   -8.74230
       H    -1.04060   -4.27744  -12.00611
       O    -1.96345   -4.60182  -11.90676
      H1    -1.89721   -5.41356  -12.38733
       H     0.80114   -6.62816  -15.63948
       O     0.50237   -7.53405  -15.62108
      H1    -0.07095   -7.53266  -14.84231
       H    -4.49476  -13.20171  -11.67513
       O    -3.86520  -12.74954  -11.12392
      H1    -3.99425  -11.81787  -11.48512
       H     1.45587   -8.72062   -8.17912
       O     0.52478   -8.99658   -8.06264
      H1     0.45233   -9.77487   -8.60249
       H    -1.54797   -9.14226  -17.07087
       O    -1.89286   -8.22806  -16.85110
      H1    -1.08920   -7.85757  -16.42092
       H    -0.62274   -6.14575   -8.75683
       O     0.32707   -6.42659   -8.80774
      H1     0.32881   -7.31180   -8.49849
       H     1.58235   -8.94140  -15.22074
       O     2.18790   -9.60434  -14.83408
      H1     1.54679  -10.04974  -14.22325
       H    -4.61567   -7.53586  -13.02208
       O    -4.56319   -7.07849  -12.13846
      H1    -4.89850   -6.18514  -12.35135
       H     0.69808  -12.65685  -12.31052
       O     0.63784  -13.56524  -11.95154
      H1    -0.13804  -13.53729  -11.34148
       H    -0.26991  -10.69453  -13.45972
       O     0.60272  -11.11979  -13.23777
      H1     0.85060  -10.59577  -12.45444
       H    -4.39842   -9.10005  -16.91812
       O    -5.32791   -8.95454  -17.08559
      H1    -5.25237   -8.45403  -17.89922

