90
frame 3 | Written by MDAnalysis XYZWriter (release 2.4.3)
       H    -7.14125  -15.55737   -1.33727
       O    -6.20936  -15.82880   -1.41142
      H1    -5.83309  -14.90099   -1.41269
       H    -3.68626  -15.68336   -5.73254
       O    -3.87732  -15.83369   -4.78875
      H1    -2.97019  -15.85784   -4.46604
       H    -6.71783   -8.44185   -6.01126
       O    -7.57535   -8.28981   -5.55580
      H1    -7.40905   -7.46051   -5.06314
       H    -6.04649  -11.96333    1.04274
       O    -5.60086  -11.75769    0.20546
      H1    -4.86682  -11.23140    0.60512
       H    -8.71869  -10.73748   -2.04696
       O    -7.84233  -11.12592   -2.24499
      H1    -7.37407  -10.87217   -1.41439
       H    -2.12750  -13.43621   -1.40520
       O    -2.61500  -13.78951   -2.17088
      H1    -2.84176  -12.94071   -2.61512
       H   -11.60875  -13.00712   -2.83688
       O   -12.30769  -13.31495   -3.48249
      H1   -12.64889  -14.11712   -3.01287
       H    -1.39914  -16.53207   -3.03379
       O    -1.33608  -15.93970   -3.75374
      H1    -1.61122  -15.07730   -3.38312
       H    -8.38230  -13.72665   -1.46674
       O    -8.60254  -14.60220   -1.83644
      H1    -9.00478  -14.99008   -1.04522
       H    -9.04142  -10.22605   -7.02331
       O   -10.00236  -10.21195   -6.93238
      H1   -10.15165  -11.12448   -6.66228
       H    -6.41191  -14.78074   -7.82353
       O    -7.31749  -14.55857   -7.75702
      H1    -7.17935  -13.68249   -7.35551
       H    -6.43608  -13.37231   -3.84480
       O    -6.53296  -12.56193   -4.39802
      H1    -6.66851  -11.90587   -3.68833
       H    -8.86936  -15.03732   -6.67591
       O    -9.75796  -15.06007   -6.29129
      H1    -9.95323  -14.09062   -6.38366
       H    -9.63372  -15.26611   -3.25650
       O   -10.09952  -15.95776   -3.79002
      H1   -10.02274  -15.57980   -4.66637
       H    -5.21085  -11.75333   -9.78166
       O    -5.77573  -11.16619   -9.33657
      H1    -5.10578  -10.71013   -8.74230
       H    -6.89627  -11.35301   -7.19499
       O    -7.70563  -11.76863   -6.82363
      H1    -7.38364  -11.91016   -5.89599
       H    -9.40248   -8.36278   -1.60653
       O    -9.86689   -9.01634   -2.16970
      H1   -10.02641   -8.55322   -3.04672
       H   -11.37682  -13.00350   -5.22200
       O   -11.26443  -12.72017   -6.13442
      H1   -12.12430  -12.42188   -6.41880
       H    -4.35218   -8.59754   -6.66309
       O    -5.05635   -9.16418   -7.00228
      H1    -5.22672   -8.76671   -7.85047
       H   -11.37802   -8.72437   -4.68513
       O   -10.54553   -8.24604   -4.56475
      H1    -9.88445   -8.90979   -4.92518
       H    -5.42871  -12.61668   -1.15521
       O    -5.48046  -13.33800   -1.84257
      H1    -4.55140  -13.65580   -1.95601
       H   -10.39721  -11.88030   -0.58299
       O   -10.58430  -11.95575   -1.52285
      H1   -10.91685  -11.06854   -1.69627
       H    -3.33220  -12.72673   -6.54228
       O    -2.79870  -13.20387   -7.23587
      H1    -3.46765  -13.83456   -7.64766
       H    -7.52282   -8.36769    0.11015
       O    -7.59777   -9.34007    0.11793
      H1    -6.68902   -9.57028    0.21138
       H    -5.21344  -12.19520   -5.34834
       O    -4.53647  -11.70993   -5.85568
      H1    -5.12228  -11.02838   -6.22466
       H    -3.86210   -9.79922   -3.28815
       O    -3.99247   -9.48526   -4.18809
      H1    -4.07752  -10.34311   -4.62270
       H    -6.85007  -17.27119   -7.13457
       O    -6.76838  -17.52641   -6.18202
      H1    -6.73703  -16.67178   -5.76944
       H    -3.96969  -15.73284   -8.46189
       O    -4.54089  -14.95963   -8.26720
      H1    -4.65901  -14.55451   -9.16950
       H    -5.26974   -8.63237   -1.27361
       O    -4.79334   -9.04461   -0.54942
      H1    -4.09807   -8.39225   -0.55991
       H    -5.59783  -15.89747   -4.47581
       O    -6.47553  -15.61186   -4.28569
      H1    -6.62837  -15.78594   -3.36989

