90
frame 3 | Written by MDAnalysis XYZWriter (release 2.4.3)
       H     9.01477   15.45987   -4.25681
       O     9.83932   15.86357   -4.58118
      H1    10.01094   16.39540   -3.82733
       H     7.01267   14.20093   -1.87116
       O     7.24717   13.27737   -2.09099
      H1     6.77811   12.97550   -2.91586
       H     4.11322   14.95127   -2.01563
       O     4.44797   15.82985   -2.27587
      H1     3.57114   16.19765   -2.56159
       H     2.25502   19.50013   -4.78579
       O     1.47415   18.96102   -4.71588
      H1     1.13100   19.09973   -5.63694
       H     0.82560   17.65057   -1.47118
       O     1.10207   18.11412   -0.65368
      H1     0.33233   18.73990   -0.45749
       H     1.97078   16.29251  -10.83533
       O     2.19064   17.20741  -10.83497
      H1     1.44346   17.40315  -11.48829
       H     3.87602   12.47023   -2.44363
       O     3.45869   13.21716   -2.88310
      H1     2.86317   12.69764   -3.47991
       H    -1.99224   15.99995   -5.60532
       O    -1.12821   16.38755   -5.29990
      H1    -1.07386   17.09364   -5.96112
       H     1.24739   14.73676   -6.91854
       O     0.50092   15.33136   -7.24906
      H1     0.00462   15.53591   -6.44798
       H     2.24587   13.52478   -1.72246
       O     1.58222   13.94304   -1.15822
      H1     1.22473   13.26437   -0.56921
       H     0.51276   13.92103   -2.57750
       O     0.15317   14.12339   -3.47418
      H1    -0.51022   13.37585   -3.60093
       H     2.58317   14.55045   -4.91311
       O     2.04919   13.75826   -5.24089
      H1     1.36130   13.83298   -4.53192
       H     4.41626   11.04335   -6.50885
       O     5.29981   10.59382   -6.39725
      H1     5.05338    9.77812   -5.93830
       H     5.29694   17.04870   -6.79737
       O     4.52823   17.70370   -6.69355
      H1     3.82344   17.33639   -7.33137
       H     4.96721   13.10494   -4.15928
       O     5.78605   12.60569   -4.31132
      H1     5.61959   11.96360   -5.01519
       H     6.29700   16.09258   -2.70477
       O     7.23683   15.97685   -2.99210
      H1     7.17978   16.77247   -3.63308
       H    -1.01821   18.49136   -2.99798
       O    -1.03218   17.57951   -2.62524
      H1    -1.11354   17.03447   -3.41487
       H     4.78473   16.81230   -0.98994
       O     4.71880   17.10618   -0.06007
      H1     5.53444   16.60839    0.15258
       H     5.57389   15.10194   -7.19939
       O     6.26825   15.82433   -7.00240
      H1     6.44096   15.49267   -6.07698
       H     5.96140   18.51094  -10.27311
       O     6.59631   18.96498   -9.78364
      H1     6.67426   19.81674  -10.25764
       H     7.69288   13.50989   -6.44633
       O     7.87012   13.70150   -5.47035
      H1     7.05546   13.31183   -5.06332
       H     1.26777   16.04530   -3.54043
       O     1.97090   16.62779   -3.21483
      H1     1.82613   17.42823   -3.77322
       H     3.57849   13.10217   -7.47590
       O     4.30148   13.63773   -7.92612
      H1     4.29528   13.27981   -8.82846
       H     4.18183   16.12616   -4.09258
       O     4.04488   15.77621   -4.99272
      H1     4.21390   16.49499   -5.61838
       H    -0.82942   19.39183   -7.64548
       O    -0.47289   18.67625   -7.11385
      H1     0.30998   18.48135   -7.61562
       H     2.40171   12.22142   -5.68622
       O     2.75531   11.58649   -6.35370
      H1     2.41837   10.81027   -5.98633
       H     7.83689   17.78953   -9.06738
       O     8.40008   17.29387   -8.40150
      H1     7.81360   16.57250   -8.16265
       H     6.85794   18.71101   -5.04437
       O     6.32228   18.03348   -4.59334
      H1     5.48102   18.48697   -4.45735
       H     1.65921   16.94449   -7.55979
       O     2.22881   17.59429   -8.00247
      H1     2.02194   17.49507   -8.99167
       H     7.06957   19.32669   -1.43834
       O     6.25580   19.69046   -0.99485
      H1     5.71062   18.91293   -0.78597

