90
frame 3 | Written by MDAnalysis XYZWriter (release 2.4.3)
       H    -2.00683  -10.22742  -14.19330
       O    -1.66457   -9.49282  -13.63633
      H1    -2.21142   -9.65104  -12.83944
       H    -4.12398  -12.56157  -15.76152
       O    -4.80791  -13.18042  -16.05954
      H1    -5.50861  -12.55526  -16.33722
       H    -5.48617  -13.84618  -14.17765
       O    -5.83087  -13.83057  -13.28676
      H1    -6.60452  -13.26911  -13.33633
       H    -2.28596  -11.50426  -15.90607
       O    -2.78436  -11.53734  -15.06426
      H1    -2.26716  -12.30688  -14.66326
       H    -2.24833  -11.48462  -18.37027
       O    -1.67627  -11.27353  -17.60613
      H1    -1.11086  -12.02809  -17.59712
       H    -2.37243  -16.00930  -15.36192
       O    -1.48198  -16.23720  -15.24904
      H1    -1.35954  -16.30861  -14.28761
       H     0.82649  -18.37341  -17.73214
       O    -0.05176  -18.08756  -18.02308
      H1    -0.56723  -18.31467  -17.21253
       H     2.09566  -13.35708  -18.23115
       O     3.05087  -13.07932  -18.06754
      H1     3.48884  -13.95122  -17.89716
       H     0.09810  -13.87064  -16.54824
       O     0.09680  -13.68151  -15.61040
      H1    -0.32152  -14.51956  -15.24877
       H     2.81397   -7.93311  -18.85115
       O     3.61509   -8.27376  -18.46806
      H1     4.22580   -7.98854  -19.14667
       H    -1.66243   -7.86341  -13.64386
       O    -1.31187   -6.92726  -13.45569
      H1    -0.43813   -7.11152  -13.01943
       H    -3.58072   -8.80230  -14.24486
       O    -4.47972   -9.15398  -14.06823
      H1    -4.81124   -9.30075  -14.96879
       H    -2.12696  -14.37713  -13.03249
       O    -1.84382  -13.55531  -13.40568
      H1    -0.85863  -13.57934  -13.32342
       H     0.80114   -6.62816  -15.63948
       O     0.50237   -7.53405  -15.62108
      H1    -0.07095   -7.53266  -14.84231
       H     1.20708   -6.59401  -18.38245
       O     1.97176   -6.06811  -18.15550
      H1     1.93514   -5.32694  -18.74878
       H    -1.54797   -9.14226  -17.07087
       O    -1.89286   -8.22806  -16.85110
      H1    -1.08920   -7.85757  -16.42092
       H     0.99159  -16.49355  -16.04475
       O     1.49269  -17.19758  -15.66855
      H1     2.33155  -17.06207  -16.03193
       H    -4.74044  -14.82331  -16.95739
       O    -4.38174  -15.70326  -17.19873
      H1    -4.74770  -16.39293  -16.60381
       H    -6.25786  -10.42210  -16.94562
       O    -6.64795  -11.27837  -16.71376
      H1    -7.37719  -11.31929  -17.38234
       H     0.71008  -14.59129  -18.93808
       O     0.39892  -13.65169  -18.73866
      H1     0.24087  -13.35558  -19.64449
       H     1.83198  -13.40179  -15.14044
       O     2.72995  -13.32047  -14.71276
      H1     3.38075  -13.16739  -15.44301
       H     1.58235   -8.94140  -15.22074
       O     2.18790   -9.60434  -14.83408
      H1     1.54679  -10.04974  -14.22325
       H     0.69808  -12.65685  -12.31052
       O     0.63784  -13.56524  -11.95154
      H1    -0.13804  -13.53729  -11.34148
       H    -2.17896   -7.81396  -18.63091
       O    -2.06657   -8.00389  -19.59344
      H1    -1.10349   -8.05652  -19.63109
       H    -1.51934  -17.80036  -15.25683
       O    -1.45778  -18.80009  -15.37027
      H1    -1.72222  -19.10853  -14.50108
       H    -1.13815  -16.39084  -18.78580
       O    -1.88676  -15.83976  -18.96917
      H1    -2.44915  -15.83081  -18.14377
       H    -0.26991  -10.69453  -13.45972
       O     0.60272  -11.11979  -13.23777
      H1     0.85060  -10.59577  -12.45444
       H     2.44026  -11.61971  -19.24073
       O     2.35613  -10.65584  -19.43540
      H1     2.78498  -10.22257  -18.63498
       H    -4.39842   -9.10005  -16.91812
       O    -5.32791   -8.95454  -17.08559
      H1    -5.25237   -8.45403  -17.89922
       H     4.06750  -11.72883  -17.01170
       O     4.58160  -10.93554  -16.97804
      H1     3.90728  -10.42490  -16.52658

