90
frame 3 | Written by MDAnalysis XYZWriter (release 2.4.3)
       H    13.93487  -16.51109  -18.29723
       O    14.75613  -16.54107  -18.82612
      H1    14.53181  -17.19051  -19.49007
       H    14.49801   -9.14276  -13.58446
       O    14.36092   -9.40233  -14.48872
      H1    13.94865   -8.71170  -15.00429
       H    17.16657  -15.96910  -11.92709
       O    16.38367  -16.28240  -11.44501
      H1    16.23642  -17.15744  -11.70060
       H    14.78236  -19.59055  -17.14137
       O    15.70088  -19.24574  -17.04653
      H1    15.43246  -18.33691  -16.98898
       H    12.07346  -12.42248  -20.15290
       O    11.82248  -11.66186  -19.57125
      H1    12.09400  -12.00803  -18.71608
       H    15.42343  -16.40538  -15.18733
       O    14.66337  -16.79700  -14.65681
      H1    15.03983  -17.44255  -14.00051
       H    11.21280  -13.63552  -15.63710
       O    11.99737  -14.12076  -15.82672
      H1    12.32637  -14.31231  -14.91710
       H    10.89605   -9.53721  -10.54087
       O    11.47950  -10.28723  -10.62421
      H1    11.13510  -10.85096  -11.35386
       H    18.04096  -12.90799  -11.31246
       O    18.68497  -12.14558  -11.20003
      H1    19.33853  -12.50882  -10.54096
       H    17.81554   -9.97898  -13.55636
       O    18.46594  -10.66517  -13.60490
      H1    18.47676  -11.08545  -12.69407
       H    18.27085  -13.04541  -16.31064
       O    18.08309  -12.53981  -17.13932
      H1    17.15185  -12.40223  -17.03245
       H    11.32118  -15.78479  -10.68829
       O    11.37274  -15.39384  -11.56632
      H1    12.24540  -15.00993  -11.65274
       H    12.02333  -17.05528  -12.63469
       O    12.54374  -17.65271  -13.23077
      H1    13.22681  -17.02393  -13.50239
       H    14.20627   -9.86728  -18.68534
       O    14.94107   -9.36719  -18.33141
      H1    15.26149   -9.96819  -17.57881
       H    19.64234  -15.33099  -12.07988
       O    18.93909  -15.42830  -12.63194
      H1    19.18387  -16.19333  -13.19979
       H    14.10330  -13.86849  -13.88939
       O    13.47676  -14.57300  -13.55341
      H1    13.96487  -15.38899  -13.84582
       H    15.77377  -13.83571  -11.13198
       O    16.24314  -13.10959  -11.52450
      H1    15.95159  -13.00973  -12.45722
       H     9.19815  -12.16351  -16.29456
       O     8.97246  -12.80186  -15.59719
      H1     8.15553  -12.46691  -15.25885
       H    15.53080  -10.25063  -15.43538
       O    15.94985  -10.77069  -16.19420
      H1    16.90064  -10.55637  -15.97598
       H    12.47878  -10.81247  -16.58909
       O    11.57974  -10.65365  -16.23380
      H1    11.05725  -10.66307  -17.05069
       H    17.83409  -16.94041  -15.77396
       O    17.27615  -16.42342  -16.31272
      H1    17.21500  -16.96069  -17.11660
       H    12.09790  -15.74293  -16.87260
       O    12.55888  -16.62305  -16.90869
      H1    13.17095  -16.51225  -16.18871
       H    10.34029  -11.68700  -13.50750
       O    10.92008  -10.92239  -13.58902
      H1    11.04300  -10.82971  -14.55826
       H    18.72581  -14.19011  -14.01851
       O    18.31627  -13.48862  -14.56248
      H1    18.86273  -12.74878  -14.28389
       H    15.31228   -9.63701  -10.72351
       O    14.63461   -9.42377  -11.38579
      H1    13.89988   -9.90880  -10.94236
       H    13.14584  -12.89742  -16.71334
       O    13.51561  -12.16967  -17.26217
      H1    14.07960  -12.60384  -17.95549
       H    10.08768  -12.94380  -10.35212
       O    10.05448  -13.10295  -11.26560
      H1    10.45030  -13.99860  -11.32064
       H    15.23095  -14.56987  -18.89548
       O    15.01255  -13.63033  -19.09285
      H1    15.68680  -13.52014  -19.76725
       H    16.63271  -13.38406  -14.81645
       O    15.71308  -13.43638  -15.08463
      H1    15.49596  -12.55786  -15.38534
       H    13.59750  -18.74376  -11.70334
       O    14.52582  -18.66101  -11.48875
      H1    14.59773  -19.17671  -10.61898

