90
frame 3 | Written by MDAnalysis XYZWriter (release 2.4.3)
       H    -3.01285   -4.19519   -0.62247
       O    -3.08940   -4.88472    0.07650
      H1    -3.90130   -4.62908    0.51489
       H    -0.47494   -1.06102   -0.19520
       O    -1.18056   -1.53872    0.36963
      H1    -1.87455   -0.87018    0.34090
       H    -3.02764   -7.92379   -3.71367
       O    -2.62019   -7.10734   -3.47034
      H1    -3.41687   -6.55286   -3.44938
       H     0.01402   -2.97609   -7.52179
       O     0.34871   -3.04222   -6.64311
      H1     0.59977   -4.00790   -6.58732
       H    -2.58479    0.12269   -5.22442
       O    -2.24901   -0.50145   -4.53948
      H1    -1.37387   -0.13007   -4.35950
       H     0.89267   -5.28266   -1.44104
       O     0.07872   -5.42864   -2.04147
      H1    -0.25177   -4.52269   -2.13085
       H    -3.70266   -0.66241   -3.42006
       O    -4.11445   -0.63369   -2.53265
      H1    -3.48931   -0.10569   -2.00328
       H     2.23724   -5.07580   -2.69557
       O     2.45702   -4.19636   -3.03419
      H1     2.99653   -3.85422   -2.25180
       H     3.68876   -2.78311   -0.60792
       O     3.20440   -3.61737   -0.51183
      H1     3.80922   -4.09336    0.08875
       H     3.66525   -4.26552   -4.59042
       O     3.95825   -4.33389   -5.52228
      H1     3.15477   -4.77305   -5.91642
       H     1.88958   -2.23220   -6.74632
       O     2.83929   -2.09082   -6.79809
      H1     3.20695   -2.93758   -6.43629
       H    -2.41141   -7.12533   -1.67461
       O    -2.61147   -7.43506   -0.81107
      H1    -2.71922   -6.60264   -0.40081
       H     1.24419   -7.75850   -3.00839
       O     2.05391   -7.49503   -3.40851
      H1     2.69381   -8.13996   -3.13285
       H    -0.08634   -6.07487   -3.95853
       O    -0.38510   -6.40497   -4.82351
      H1    -1.04841   -7.06813   -4.56679
       H    -3.26593   -1.72493   -5.11838
       O    -3.79812   -2.52043   -5.31079
      H1    -4.59726   -2.09483   -5.73527
       H     5.15477   -0.80223   -3.76663
       O     5.14763    0.15946   -3.96638
      H1     4.13996    0.27582   -4.12150
       H    -1.45115   -2.25472   -7.85083
       O    -0.97204   -2.04603   -8.64827
      H1    -0.60759   -1.15574   -8.57691
       H    -5.09537   -2.10571   -2.40826
       O    -5.80895   -2.83325   -2.23762
      H1    -5.49011   -3.43066   -2.91964
       H    -2.55803   -3.80507   -5.73615
       O    -2.04401   -4.50387   -6.13538
      H1    -1.49316   -4.82545   -5.39180
       H    -3.10657   -6.56190   -6.71213
       O    -3.59844   -7.10999   -6.08113
      H1    -3.10757   -6.86532   -5.23882
       H    -3.27381   -4.24704   -2.74258
       O    -3.96681   -4.65218   -3.27533
      H1    -3.93700   -4.08214   -4.05460
       H     1.30888   -5.65449   -7.51570
       O     1.70605   -5.50586   -6.67131
      H1     1.52336   -6.34700   -6.21360
       H     1.69767   -3.84797    0.12584
       O     0.76832   -4.14128    0.14179
      H1     0.51413   -3.65437    0.95061
       H     1.43328   -1.61666   -4.17923
       O     2.26001   -1.11057   -4.34793
      H1     2.42842   -1.47575   -5.26665
       H     0.76892   -3.11537   -3.47536
       O    -0.06951   -2.67742   -3.71502
      H1    -0.16237   -2.93448   -4.63730
       H     2.10566   -7.11774   -0.92681
       O     2.84535   -6.55521   -0.78106
      H1     3.27288   -6.48689   -1.63289
       H     0.82578    0.99137   -4.01169
       O     0.01772    1.05192   -3.56559
      H1    -0.27769    1.91466   -3.86402
       H     3.54381   -0.48160   -0.13795
       O     3.40788   -0.97771   -1.05586
      H1     4.00708   -0.45785   -1.59618
       H     0.37966    0.16927   -1.93546
       O     0.79431   -0.05275   -1.05702
      H1     1.47788   -0.74723   -1.17654
       H    -1.37166   -2.86710   -2.41567
       O    -2.04926   -3.14515   -1.76748
      H1    -1.73811   -2.59919   -0.97043

