90
frame 3 | Written by MDAnalysis XYZWriter (release 2.4.3)
       H   -12.75866    7.38891   13.61858
       O   -11.94614    7.06544   14.05815
      H1   -11.66024    7.77198   14.62047
       H   -16.43891    4.51989   19.38458
       O   -16.76291    3.61052   19.43875
      H1   -17.71510    3.88902   19.61571
       H    -4.67778    4.57887   16.63249
       O    -4.90755    5.07654   17.42628
      H1    -4.01106    5.19862   17.79807
       H   -10.52311    7.24567   13.33091
       O    -9.71119    7.60164   12.88774
      H1    -9.05471    7.62573   13.58224
       H   -12.20300   -1.33569   16.04719
       O   -12.87941   -0.76990   16.49659
      H1   -12.52964    0.10339   16.12081
       H   -10.68769    3.97361   14.03380
       O   -10.84242    4.51898   13.25404
      H1   -11.30414    5.25048   13.72213
       H    -9.98293    4.90443   18.03446
       O   -10.90585    4.69439   17.84022
      H1   -11.10699    4.05799   18.62335
       H   -10.09453    2.02757   15.73483
       O   -10.18581    2.96908   15.64392
      H1    -9.97598    3.27091   16.56180
       H   -14.12741    3.51851   14.89061
       O   -14.76506    3.92034   15.45580
      H1   -14.16953    4.20499   16.12502
       H    -8.32849    3.29388   14.45620
       O    -7.80680    2.70020   13.88239
      H1    -7.36306    2.02830   14.39974
       H    -5.72764   10.94478   15.77829
       O    -5.76435    9.99271   15.92681
      H1    -6.26624    9.68418   15.16188
       H    -6.66781    7.81262   13.88405
       O    -7.34207    8.32479   14.33157
      H1    -7.71184    7.69000   15.00624
       H   -12.96611    8.74246   18.32435
       O   -12.45918    7.99806   17.90029
      H1   -13.19170    7.35580   17.83828
       H   -15.29927    2.16794   18.88119
       O   -14.61223    1.52331   18.76187
      H1   -14.83011    0.85967   19.52670
       H   -10.14557   10.10812   14.54915
       O    -9.93227   10.45628   13.64232
      H1    -9.31647    9.74865   13.33491
       H    -7.91852   10.42653   18.23329
       O    -7.89500    9.66014   17.54090
      H1    -7.10792    9.91173   16.98757
       H    -8.91634    5.47412   12.42315
       O    -8.17713    5.11088   11.89926
      H1    -8.48755    4.20684   11.67963
       H    -8.66442    2.23543   12.45200
       O    -9.02511    2.42972   11.54155
      H1    -9.94415    2.13278   11.70120
       H    -9.04765   -0.00778   15.54428
       O    -9.97258   -0.03066   15.78375
      H1   -10.41302   -0.27060   14.94025
       H    -5.24320    4.29784   13.86225
       O    -5.77958    4.47181   14.65492
      H1    -6.59491    4.17910   14.29624
       H    -7.45085    4.75169   18.94945
       O    -7.48055    4.66089   17.95479
      H1    -6.53865    4.73730   17.68401
       H   -16.01208    6.04455   13.49549
       O   -16.31397    5.14765   13.61572
      H1   -15.50582    4.76171   14.02648
       H   -13.79165    5.38510   18.54103
       O   -13.48820    5.65468   17.61892
      H1   -12.57712    5.37568   17.76044
       H    -8.81354    0.33186   17.91530
       O    -8.89513    0.27442   18.86902
      H1    -8.17496   -0.35528   19.21707
       H    -7.39606    1.39094   18.83225
       O    -6.76734    1.96694   18.42978
      H1    -7.32773    2.78956   18.32440
       H   -12.42449    1.90851   11.40435
       O   -11.55345    1.84426   11.87752
      H1   -11.67699    2.69231   12.37623
       H    -9.87164    9.17835   16.28084
       O   -10.78338    9.17222   15.93496
      H1   -11.32049    8.91691   16.75429
       H    -6.99910    1.40478   16.73350
       O    -7.27976    0.91132   15.90810
      H1    -6.64635    0.13328   15.89522
       H    -7.98339    5.87241   16.55659
       O    -8.36318    6.75120   16.22381
      H1    -8.13183    7.37981   16.95423
       H   -13.27078    2.04642   16.55396
       O   -12.83927    1.89311   15.69894
      H1   -12.01700    2.42428   15.84857

