90
frame 2 | Written by MDAnalysis XYZWriter (release 2.4.3)
       H     5.37823   11.69505   15.25033
       O     6.19902   11.27548   14.95368
      H1     6.91828   11.93966   15.14700
       H     3.10238   11.98123   18.95959
       O     2.29679   12.42924   19.38764
      H1     2.44683   13.39133   19.28226
       H     4.81439    8.78905   14.43295
       O     4.28581    8.20918   14.98328
      H1     4.39990    7.29992   14.59130
       H     0.79915   15.02296   16.77902
       O     1.64280   14.87403   17.23335
      H1     1.40198   14.93113   18.18541
       H     7.73631   10.37930   18.58553
       O     7.46453   11.30053   18.86061
      H1     7.12646   11.13982   19.76691
       H     3.12111   17.53429   14.66504
       O     4.07139   17.53931   14.86262
      H1     4.40015   17.73675   13.97865
       H     0.45997   12.30419   12.39165
       O     0.65872   11.99879   11.52590
      H1     1.37937   11.42452   11.67363
       H     2.88450    9.85646   12.42218
       O     3.01993   10.77843   12.62049
      H1     2.70311   10.73085   13.53171
       H     4.39474   11.67440   17.49298
       O     4.71986   11.44987   18.34746
      H1     5.71229   11.57443   18.28287
       H     3.23583   12.85497   13.21257
       O     3.52711   13.71784   12.94553
      H1     4.29021   13.47842   12.42395
       H    -1.27815   14.74892   15.83548
       O    -0.64253   15.32474   15.38111
      H1    -0.72604   14.99952   14.48886
       H     1.17267   16.96706   14.92862
       O     1.50529   17.46154   14.18125
      H1     1.28786   16.89989   13.38652
       H     9.24365   11.69387   14.14918
       O     9.00668   12.29298   14.89123
      H1     9.17106   13.21137   14.59448
       H     1.01362    9.70567   15.55510
       O     0.34727    9.89353   14.90348
      H1     0.06218    8.98443   14.70208
       H    -2.53540   13.90223   17.84379
       O    -1.72019   13.82380   17.35148
      H1    -1.74937   12.85179   17.42985
       H     7.73650   15.38903   14.50472
       O     8.42811   15.09007   15.10228
      H1     9.13672   15.61770   14.76388
       H     2.04566    8.17536   17.50280
       O     2.18105    8.85102   16.76063
      H1     3.00804    8.53036   16.37407
       H     2.30181   16.86713   17.96767
       O     2.45829   17.58072   18.53003
      H1     2.91748   18.14461   17.89132
       H     4.13853   15.41548   19.72018
       O     3.88610   14.63040   19.20771
      H1     4.52119   14.59195   18.44555
       H     8.36380    8.55772   14.13771
       O     8.00794    8.88415   15.00200
      H1     7.65223    9.77628   14.81211
       H     1.20253   13.54058   10.74729
       O     1.55781   14.18637   10.12829
      H1     0.91290   14.17966    9.41209
       H     5.44924   14.29075   16.08010
       O     5.35586   14.17407   17.07906
      H1     6.30695   14.42241   17.25930
       H     4.27411   18.66846   16.53858
       O     4.15483   19.24814   17.31533
      H1     3.71957   19.98346   16.87224
       H     0.28459   10.41624   17.82216
       O     0.08462    9.87304   18.61171
      H1    -0.08358    9.07796   18.17243
       H     2.57113   11.46276   15.99662
       O     3.32736   11.93543   15.67349
      H1     3.29770   12.78250   16.12630
       H     1.27759   12.18514   18.08297
       O     0.99131   11.99603   17.15989
      H1     0.71845   12.91801   16.92347
       H    -2.38648   11.24771   14.59701
       O    -2.14322   11.09750   15.51033
      H1    -1.16958   10.73914   15.41616
       H     5.10111   10.13730   12.34909
       O     5.98106    9.85650   12.68626
      H1     6.11431   10.58668   13.27671
       H     4.83150   14.53551   13.85550
       O     5.28414   14.92816   14.60157
      H1     4.83697   15.74757   14.78786
       H     8.31458   14.63726   16.89499
       O     8.51686   14.22207   17.80386
      H1     8.47895   13.27335   17.63862

