90
frame 3 | Written by MDAnalysis XYZWriter (release 2.4.3)
       H    10.55654   12.70075  -16.38563
       O    10.50843   13.57190  -15.90643
      H1    11.08035   13.42062  -15.11836
       H     3.85238   15.93419  -17.45336
       O     4.01989   16.16158  -18.37480
      H1     3.28548   16.61913  -18.75903
       H    15.93936   17.00119  -14.07394
       O    15.33279   16.69091  -13.35137
      H1    14.38723   16.99237  -13.65074
       H     7.99322   16.03856  -15.81169
       O     8.75358   16.37274  -15.21693
      H1     8.59257   17.27930  -14.93679
       H    10.31969   16.79243  -16.82056
       O    10.63563   16.13050  -17.39751
      H1    10.40135   15.34824  -16.88740
       H    18.06141   14.56246  -18.76005
       O    17.58253   15.20805  -18.20966
      H1    17.34513   14.65460  -17.42834
       H    12.06896   16.09200  -16.59175
       O    12.97233   16.01030  -16.26560
      H1    13.29209   15.11404  -16.42033
       H    11.26366   15.36419  -12.55572
       O    10.67278   14.85080  -11.97595
      H1     9.87100   15.26628  -12.24265
       H     7.39148   13.12358  -14.88614
       O     7.91599   12.90221  -15.68963
      H1     8.73411   13.31102  -15.40577
       H    10.89016   18.66643  -10.57197
       O    11.48802   18.03483  -10.14181
      H1    12.36206   18.15121  -10.62534
       H    16.63919   13.22761  -15.60153
       O    16.41210   13.98394  -16.14220
      H1    15.94249   13.58097  -16.92035
       H    13.48812   12.97342  -17.88375
       O    14.05632   13.76138  -17.81401
      H1    13.82881   14.32613  -18.54318
       H     7.91432   18.89685  -17.71176
       O     8.34367   19.77641  -17.44902
      H1     9.11899   19.78308  -18.04362
       H     3.55775   17.55803  -16.76837
       O     3.10342   18.40787  -16.87093
      H1     2.17792   18.14484  -17.05572
       H    12.71344   16.10325  -14.57728
       O    12.36552   16.25995  -13.67471
      H1    11.94357   17.12900  -13.80946
       H     9.23406   19.10630  -14.22182
       O     8.37582   19.11261  -14.69195
      H1     8.56470   19.45518  -15.58216
       H    14.60122   17.10231  -11.49975
       O    14.15769   17.46769  -10.76756
      H1    14.54881   16.94192  -10.10680
       H    14.98545   13.97102  -14.57752
       O    14.49605   13.70944  -13.84007
      H1    14.68323   14.46408  -13.31166
       H     9.71754   17.01461  -18.78320
       O     8.90110   17.28415  -19.29441
      H1     9.27214   17.61994  -20.14458
       H     6.43408   17.79062  -19.41000
       O     6.04094   18.65999  -19.14229
      H1     5.17237   18.29543  -19.05275
       H    11.38554   19.10405  -15.22794
       O    11.36125   18.92290  -14.26707
      H1    11.60029   19.75756  -13.83189
       H    16.51613   18.57129  -15.95779
       O    16.86358   17.86317  -15.33136
      H1    17.77280   18.29942  -15.22857
       H     7.67475   16.09604  -13.59429
       O     7.91961   16.24136  -12.64363
      H1     7.31023   15.69870  -12.13121
       H     5.39142   17.23703  -15.60815
       O     4.64481   16.71684  -15.24043
      H1     4.03171   17.39249  -15.01757
       H     9.09429   18.11083  -11.75177
       O     9.49792   18.96716  -11.86069
      H1     8.77205   19.52203  -12.15338
       H    13.88802   17.72925  -18.71764
       O    13.88593   18.04621  -17.79283
      H1    14.17826   17.25603  -17.29153
       H     6.88766   15.15233  -17.67724
       O     6.76869   15.19292  -16.67988
      H1     6.98200   14.28212  -16.44859
       H    12.19580   10.74300  -17.18854
       O    13.02297   11.21012  -17.34639
      H1    13.09884   11.15507  -18.30693
       H    11.18222   19.56000  -17.57026
       O    11.27107   18.71730  -17.04604
      H1    12.19856   18.43869  -17.26916
       H    13.06646   13.00532  -13.84426
       O    12.22279   12.53213  -13.78717
      H1    11.91640   12.51594  -12.88514

