90
frame 3 | Written by MDAnalysis XYZWriter (release 2.4.3)
       H    -0.96369   14.73283   -2.05693
       O    -1.55005   14.49270   -1.32840
      H1    -1.60671   15.34944   -0.90045
       H    -0.98325   12.14504   -1.16332
       O    -0.23754   11.57326   -1.43441
      H1    -0.26818   11.55906   -2.36567
       H     4.11322   14.95127   -2.01563
       O     4.44797   15.82985   -2.27587
      H1     3.57114   16.19765   -2.56159
       H     0.82560   17.65057   -1.47118
       O     1.10207   18.11412   -0.65368
      H1     0.33233   18.73990   -0.45749
       H     3.26730   14.79693    1.23219
       O     3.54298   13.97681    1.71175
      H1     3.68435   14.33413    2.63161
       H     1.03697   10.84444    1.39846
       O     1.49859   10.34842    2.13882
      H1     1.18671    9.43755    2.07555
       H    -0.27334   13.30126    3.40906
       O    -0.49368   13.05846    4.34774
      H1    -1.39613   12.69493    4.13659
       H     3.87602   12.47023   -2.44363
       O     3.45869   13.21716   -2.88310
      H1     2.86317   12.69764   -3.47991
       H    -3.05690   13.95802   -0.98053
       O    -3.91749   13.58134   -0.65983
      H1    -3.72167   12.90914    0.06394
       H    -2.86430   16.87918    0.03414
       O    -1.89026   16.99967   -0.13562
      H1    -1.84462   17.25596   -1.09041
       H     5.14824   11.57943    0.24130
       O     4.95466   11.81511   -0.70070
      H1     5.80611   12.23901   -1.01236
       H     4.39784   10.89532    2.44318
       O     5.00473   11.44982    1.95526
      H1     4.54212   12.27752    1.82100
       H    -0.45964    9.15703   -0.79806
       O    -1.25124    8.55440   -0.74147
      H1    -1.17866    8.05392   -1.55132
       H     2.24587   13.52478   -1.72246
       O     1.58222   13.94304   -1.15822
      H1     1.22473   13.26437   -0.56921
       H     0.51276   13.92103   -2.57750
       O     0.15317   14.12339   -3.47418
      H1    -0.51022   13.37585   -3.60093
       H     2.58317   14.55045   -4.91311
       O     2.04919   13.75826   -5.24089
      H1     1.36130   13.83298   -4.53192
       H    -2.37013   13.12140   -4.45940
       O    -1.89380   12.53423   -3.85620
      H1    -2.59348   12.14818   -3.37187
       H    -2.38740   15.27496    3.89959
       O    -2.04966   15.30206    3.02270
      H1    -2.78374   15.74598    2.49004
       H     4.96721   13.10494   -4.15928
       O     5.78605   12.60569   -4.31132
      H1     5.61959   11.96360   -5.01519
       H    -1.01821   18.49136   -2.99798
       O    -1.03218   17.57951   -2.62524
      H1    -1.11354   17.03447   -3.41487
       H    -3.13160    9.63218   -2.65974
       O    -3.01942   10.52694   -2.37301
      H1    -2.34856   10.40180   -1.70205
       H     4.78473   16.81230   -0.98994
       O     4.71880   17.10618   -0.06007
      H1     5.53444   16.60839    0.15258
       H     6.08406    9.16447   -2.07494
       O     5.15276    9.44899   -2.04155
      H1     5.18653   10.30074   -1.55438
       H    -2.41933   12.35357    1.85699
       O    -2.05136   12.46223    0.95015
      H1    -1.61829   13.33222    0.95641
       H     1.26777   16.04530   -3.54043
       O     1.97090   16.62779   -3.21483
      H1     1.82613   17.42823   -3.77322
       H     0.82361    7.53819   -2.74359
       O     1.31867    8.34978   -2.79959
      H1     2.09321    8.14287   -2.21329
       H     0.66175   14.91787    1.83656
       O     0.61789   13.91292    1.90450
      H1     1.55968   13.71676    1.91764
       H     0.86477   11.14979   -4.30553
       O     1.54612   11.22937   -3.61516
      H1     1.82972   10.27596   -3.52307
       H     2.40171   12.22142   -5.68622
       O     2.75531   11.58649   -6.35370
      H1     2.41837   10.81027   -5.98633
       H     0.67861   16.87555    0.94360
       O     0.37153   16.51020    1.76289
      H1    -0.58525   16.39255    1.60302

