90
frame 3 | Written by MDAnalysis XYZWriter (release 2.4.3)
       H    12.26421   -7.57239    2.72786
       O    12.73738   -7.98237    3.48707
      H1    13.49249   -8.35151    3.07993
       H    17.29735   -5.64903   -4.63785
       O    17.14864   -5.97528   -3.78254
      H1    17.88567   -5.52866   -3.31231
       H    13.70847   -4.63419   -5.34513
       O    13.32351   -5.39292   -5.83590
      H1    13.03352   -6.01084   -5.14949
       H     9.78944   -4.99221   -4.80739
       O     9.28682   -5.81054   -4.61614
      H1     8.39137   -5.42413   -4.51573
       H    12.11725   -5.60012   -1.16672
       O    12.35201   -4.59654   -1.11370
      H1    13.25301   -4.67856   -1.49684
       H    13.39502   -9.24960   -3.69541
       O    13.93108   -9.27969   -2.88393
      H1    13.39345   -9.87080   -2.34737
       H    15.80882    0.28866   -3.21190
       O    15.24103   -0.46912   -3.17212
      H1    14.50091    0.01772   -3.55606
       H    15.77502   -6.58175   -7.32058
       O    15.53930   -7.00151   -6.48038
      H1    14.79559   -6.33767   -6.25431
       H    11.62881   -7.23335   -0.36789
       O    12.02101   -7.47752   -1.19959
      H1    12.87390   -7.82751   -0.87212
       H    11.92577   -3.85708    0.36307
       O    11.56828   -3.91221    1.27185
      H1    11.07230   -3.09502    1.37980
       H    14.27147   -3.22811    1.86619
       O    14.55676   -2.32140    1.61578
      H1    14.15796   -2.31784    0.72876
       H    18.75194   -3.98586   -5.97715
       O    17.97661   -4.47973   -6.30903
      H1    17.21916   -3.94659   -5.94311
       H    18.17645   -3.91654   -1.60551
       O    17.57933   -3.11848   -1.44650
      H1    17.71905   -2.67786   -2.33968
       H    16.66043   -9.51458    0.45279
       O    16.64255   -8.54016    0.52930
      H1    17.23212   -8.29919   -0.20220
       H    12.90995   -1.66512   -1.89013
       O    13.56141   -1.43556   -1.25172
      H1    14.27411   -1.10029   -1.82941
       H     9.90252   -6.99296   -1.15041
       O     9.48929   -6.57952   -0.40145
      H1     8.56317   -6.90412   -0.52076
       H    16.58716   -3.18180    1.15326
       O    17.39156   -3.57987    1.63646
      H1    18.06405   -3.87802    0.95530
       H    14.73963   -8.55038    0.64373
       O    13.80271   -8.68533    0.48451
      H1    13.56540   -9.55331    0.87638
       H    16.78439  -10.01122   -6.77932
       O    16.60853   -9.89267   -5.85825
      H1    16.26139   -8.97919   -5.85620
       H    10.95904   -6.73587   -3.86334
       O    11.76165   -7.15696   -4.19203
      H1    12.19120   -7.42573   -3.32019
       H    10.06820   -1.31742   -3.17797
       O    10.59272   -1.91974   -2.58603
      H1    11.25116   -2.18284   -3.30015
       H    12.75598   -1.46679   -4.51750
       O    12.30028   -2.33927   -4.54805
      H1    12.05437   -2.36103   -5.48192
       H    15.72285   -5.70099   -2.30109
       O    15.12870   -5.10577   -1.85832
      H1    15.62679   -4.35757   -1.58175
       H    18.25463   -8.90932   -1.98443
       O    18.39271   -8.21153   -1.37030
      H1    18.46941   -7.47289   -1.99051
       H    16.67671   -6.70684    1.39127
       O    16.57801   -6.22075    2.27271
      H1    16.86831   -5.35645    1.97165
       H    15.83326  -11.10340   -4.35732
       O    16.15226  -11.33533   -3.43824
      H1    15.68069  -10.67627   -2.90955
       H    17.42607   -1.25526   -3.52309
       O    18.25462   -1.67403   -3.63973
      H1    18.51696   -1.25646   -4.45447
       H    11.13484   -5.43142    1.37261
       O    11.24367   -6.43056    1.51242
      H1    10.43134   -6.73353    1.08807
       H    12.51690   -0.02512    1.92878
       O    12.31992   -0.77773    2.54214
      H1    12.99761   -1.48538    2.43797
       H    14.93273   -5.36047    2.57037
       O    14.09803   -4.80925    2.50335
      H1    13.43071   -5.43979    2.20908

