90
frame 3 | Written by MDAnalysis XYZWriter (release 2.4.3)
       H     4.14719    6.46354  -12.75615
       O     4.41334    7.41053  -12.79531
      H1     3.63645    7.77029  -12.33788
       H     7.15494   10.63230   -8.91505
       O     6.54590   11.37294   -8.85765
      H1     6.10254   11.14187   -7.97744
       H     2.30771   10.89890  -12.56948
       O     3.03629   10.62531  -13.18225
      H1     3.75685   10.48470  -12.56965
       H     7.31174   11.67865  -16.83418
       O     7.42862   10.90061  -17.39159
      H1     6.45978   10.94857  -17.58973
       H     6.67998    9.18590  -15.14278
       O     6.88079   10.04364  -14.79585
      H1     7.03025   10.50052  -15.60330
       H    12.35630    8.61229  -13.35737
       O    11.55738    8.32517  -13.78506
      H1    11.76441    7.40136  -14.07659
       H    10.26713    9.34728  -17.26983
       O    10.51126    9.22096  -18.18750
      H1    10.38575   10.18015  -18.48695
       H     7.39148   13.12358  -14.88614
       O     7.91599   12.90221  -15.68963
      H1     8.73411   13.31102  -15.40577
       H     8.94270    6.15096  -17.47619
       O     8.63223    7.11676  -17.39512
      H1     9.21115    7.56437  -18.06814
       H     3.74059   11.18928  -16.79800
       O     3.07200   11.04907  -16.16502
      H1     2.31333   11.13571  -16.74980
       H     4.52602    7.22226  -16.60638
       O     3.78845    6.60636  -16.53018
      H1     3.26649    6.94154  -15.79279
       H     8.66342    7.77353  -12.14933
       O     9.51272    7.36454  -12.02156
      H1    10.03721    7.92327  -12.53314
       H     6.66646    6.84463  -15.54279
       O     6.26465    7.63409  -16.00137
      H1     6.87932    7.65252  -16.77494
       H     8.00897    5.19517  -15.42443
       O     7.50406    5.61271  -14.73880
      H1     8.15923    6.03068  -14.16839
       H     1.28195    8.32347  -15.48130
       O     2.12270    8.06267  -15.05797
      H1     2.64154    8.78886  -15.24758
       H     3.84327   11.34925  -10.63291
       O     4.26943   10.50693  -10.35614
      H1     5.10407   10.95444  -10.10620
       H     8.22541    5.09709   -9.47815
       O     8.18338    5.96055   -9.09239
      H1     8.89970    6.47272   -9.51477
       H     5.49714    4.80605  -15.69585
       O     5.41792    4.08353  -16.29687
      H1     4.66402    4.28167  -16.80895
       H    10.97168    9.31479  -15.04415
       O    10.34420    9.96908  -15.48909
      H1     9.45310    9.72754  -15.17528
       H     4.31226    7.97601   -8.30373
       O     3.57266    8.62664   -8.35901
      H1     3.88164    9.39384   -8.86230
       H     9.26384    8.43799   -9.35476
       O    10.09611    7.92364   -9.63738
      H1     9.95286    7.74141  -10.58736
       H     6.03973    8.22529  -12.19922
       O     6.84671    8.69827  -12.31219
      H1     6.69489    9.36698  -12.99450
       H    11.39524   13.13820  -11.22036
       O    11.35803   12.22794  -10.98107
      H1    10.46611   12.03507  -11.25091
       H     7.10522    9.00853   -8.07069
       O     7.91895    9.22351   -8.50501
      H1     8.39193    9.59747   -7.73710
       H     4.10864   13.39428  -15.27383
       O     3.82913   14.01490  -15.95328
      H1     4.32028   14.82052  -15.67961
       H     5.28827    6.75817  -10.99820
       O     5.87094    5.99828  -10.85508
      H1     6.66194    6.35339  -10.38318
       H     6.12284   14.24852  -12.50298
       O     6.08277   14.42381  -11.55350
      H1     5.75628   15.30190  -11.62233
       H     1.41235    6.43113  -11.95120
       O     1.66102    7.33546  -11.83185
      H1     0.94347    7.78327  -12.34588
       H     2.83706   13.63207  -11.37482
       O     3.60416   13.10454  -11.19507
      H1     4.24811   13.82421  -11.21973
       H     4.52713   12.02037  -13.75770
       O     5.42967   12.32715  -13.76511
      H1     5.88680   11.50273  -13.93066

