90
frame 3 | Written by MDAnalysis XYZWriter (release 2.4.3)
       H     6.60218    3.69128   -5.52527
       O     6.99184    4.04886   -4.69477
      H1     7.04127    3.20643   -4.18861
       H     4.73364    8.43084   -3.43726
       O     4.47421    7.72798   -4.07163
      H1     3.80459    8.17914   -4.67037
       H    -1.63414    3.83927   -3.94937
       O    -0.76997    3.97998   -4.33309
      H1    -0.50241    4.81975   -3.89220
       H    -1.15594    5.91658   -2.20934
       O    -0.31496    6.23584   -2.65832
      H1     0.25536    5.76694   -2.04118
       H     1.03697   10.84444    1.39846
       O     1.49859   10.34842    2.13882
      H1     1.18671    9.43755    2.07555
       H     6.01844    5.28419    1.18355
       O     6.18974    5.40310    2.14818
      H1     5.48343    4.90804    2.62149
       H     5.14824   11.57943    0.24130
       O     4.95466   11.81511   -0.70070
      H1     5.80611   12.23901   -1.01236
       H     4.39784   10.89532    2.44318
       O     5.00473   11.44982    1.95526
      H1     4.54212   12.27752    1.82100
       H    -0.45964    9.15703   -0.79806
       O    -1.25124    8.55440   -0.74147
      H1    -1.17866    8.05392   -1.55132
       H     6.29411    1.05376   -0.60207
       O     5.85600    1.87997   -0.75826
      H1     6.34269    2.08759   -1.63075
       H     4.92527    5.98567   -2.72593
       O     4.66505    5.77071   -1.81821
      H1     5.48157    5.99744   -1.38809
       H     6.83230    7.81398    0.20646
       O     6.77915    7.01284   -0.35981
      H1     7.66637    6.67851   -0.24822
       H    -0.78256    8.20334    0.91069
       O    -0.25962    8.03505    1.71250
      H1    -0.62794    7.19503    2.06320
       H     3.26170    3.24274    2.86432
       O     4.17747    3.01100    3.02465
      H1     4.25168    3.37769    3.90816
       H     7.47337    3.60028    0.99510
       O     8.01741    3.75208    0.17675
      H1     7.26900    3.56847   -0.45070
       H     1.62120    2.58687    3.62529
       O     1.30461    3.35725    3.08391
      H1     1.41507    2.96512    2.18042
       H     2.25488    6.81457    0.89737
       O     2.33245    6.05811    1.50448
      H1     1.84709    6.32574    2.27013
       H    -0.23957    4.87639    2.45115
       O    -1.03413    5.37772    2.14212
      H1    -1.78969    4.95821    2.57864
       H     1.81126    4.22328   -1.16602
       O     1.20864    4.97593   -1.03685
      H1     1.33859    5.13391   -0.08810
       H     2.39625    2.46187    0.12260
       O     1.82855    1.87127    0.61953
      H1     1.37781    1.33869   -0.10815
       H     4.39455    9.21466    4.30487
       O     4.12188    9.30571    3.41401
      H1     4.73588    8.83693    2.87149
       H     8.18231    9.78637   -3.27835
       O     8.13346    9.03945   -2.69124
      H1     8.72023    8.50470   -3.23552
       H     6.08406    9.16447   -2.07494
       O     5.15276    9.44899   -2.04155
      H1     5.18653   10.30074   -1.55438
       H     1.29805    6.19507   -4.48652
       O     1.83143    6.40435   -5.29530
      H1     1.06169    6.42150   -5.89723
       H     7.97747    9.95823    0.42783
       O     7.21875    9.65662    0.96116
      H1     6.70464   10.47899    0.98334
       H     3.75370    8.28734   -0.97954
       O     3.02513    7.65645   -0.82605
      H1     3.64964    6.86272   -1.02966
       H     3.86602    4.06050   -1.56888
       O     3.43353    3.25813   -1.24996
      H1     4.10650    2.58767   -1.07829
       H     0.82361    7.53819   -2.74359
       O     1.31867    8.34978   -2.79959
      H1     2.09321    8.14287   -2.21329
       H     0.86477   11.14979   -4.30553
       O     1.54612   11.22937   -3.61516
      H1     1.82972   10.27596   -3.52307
       H     2.78511    8.36277   -6.75183
       O     2.72259    8.83731   -5.89856
      H1     2.06547    8.23088   -5.48230

