90
frame 6 | Written by MDAnalysis XYZWriter (release 2.4.3)
       H   -14.81776   12.92496    2.23778
       O   -15.51124   13.63410    2.33399
      H1   -15.12470   14.43818    1.95442
       H   -16.92150   12.99221    1.63565
       O   -17.67909   12.64350    1.16931
      H1   -17.49595   12.88980    0.20710
       H   -15.49440   13.46455   11.31716
       O   -15.59960   12.51478   11.03726
      H1   -16.16579   12.48208   10.25974
       H   -18.52905   11.50374    5.06651
       O   -18.69096   11.53633    6.01001
      H1   -18.65759   12.43382    6.33423
       H   -18.13068   14.70111    2.02892
       O   -18.69900   15.37792    2.41479
      H1   -19.08381   15.01876    3.20151
       H   -16.75838    9.63660    8.11211
       O   -17.59278    9.38222    7.71371
      H1   -17.86213   10.06071    7.04010
       H   -19.06198   20.03646   10.02439
       O   -18.54841   19.29344    9.55954
      H1   -19.02778   18.44312    9.70493
       H   -13.23619   16.89827    9.86363
       O   -13.98882   17.39742   10.24884
      H1   -13.92451   17.20093   11.22558
       H   -12.91488   19.51153    3.74906
       O   -13.64499   19.87912    4.29885
      H1   -14.25262   19.10306    4.13284
       H   -18.20448   16.17340    9.47713
       O   -19.07783   16.42467    9.82689
      H1   -19.66163   16.54885    9.03846
       H   -18.12199   17.00185    2.16271
       O   -17.86189   17.99818    2.03229
      H1   -18.57280   18.44882    2.47786
       H   -16.41157   17.00921    5.46301
       O   -17.16686   16.45221    5.29495
      H1   -17.42026   16.52080    4.35471
       H   -14.50428   15.82849    0.87768
       O   -15.34981   15.94540    1.26837
      H1   -16.02377   15.86413    0.52929
       H   -14.41706   16.39893    6.19233
       O   -14.81904   17.13528    6.64450
      H1   -15.34335   16.69130    7.31097
       H   -17.55460   13.17101   12.73683
       O   -17.35704   13.58258   13.60464
      H1   -17.50425   12.83210   14.22813
       H   -16.28836   18.22225    3.05448
       O   -15.43107   17.94326    3.46838
      H1   -15.18557   17.23238    2.82935
       H   -17.61048   10.82949    2.91957
       O   -18.39268   10.93564    3.47157
      H1   -19.14525   10.53506    3.02081
       H   -18.95524   13.98728    8.24557
       O   -18.64955   14.02296    7.34226
      H1   -18.94918   14.86344    6.93656
       H   -14.64363   14.78574   12.26883
       O   -15.26743   15.11918   11.62995
      H1   -15.95913   15.50977   12.23060
       H   -18.54167   14.77189   14.29760
       O   -18.94261   15.64555   14.26452
      H1   -18.56357   16.06626   13.43746
       H   -16.75829   19.30885    9.74464
       O   -15.81501   19.52852    9.45373
      H1   -15.30685   18.80359    9.82326
       H   -15.79608   13.42301    4.36715
       O   -15.53171   13.00575    5.19292
      H1   -15.25532   12.07565    5.02025
       H   -16.35159   15.18728    8.33611
       O   -16.38974   15.92951    8.98991
      H1   -15.86745   15.74299    9.75799
       H   -12.78475   14.25500    5.14308
       O   -13.42519   14.99400    5.08429
      H1   -14.22989   14.40640    4.97748
       H   -18.79534   16.47967    6.14004
       O   -19.68819   16.28558    6.33091
      H1   -20.11914   16.76280    7.06253
       H   -17.84975   17.09612   11.39357
       O   -17.49883   16.75717   12.20266
      H1   -17.18699   17.53382   12.65999
       H   -19.08322    9.58476    8.70129
       O   -19.77272    9.27944    9.34329
      H1   -19.39614    9.31187   10.27583
       H   -19.37236   12.96417   10.92424
       O   -18.82150   13.49695   10.31281
      H1   -19.14128   14.36929   10.51854
       H   -14.32320   13.74446    8.72199
       O   -13.35419   13.67232    8.91216
      H1   -12.90965   14.51665    8.57350
       H   -17.04410   13.57234    7.52623
       O   -16.07887   13.51594    7.69062
      H1   -15.80167   13.12369    6.85545

