90
frame 2 | Written by MDAnalysis XYZWriter (release 2.4.3)
       H     7.87317  -15.94323    4.92365
       O     8.24281  -15.34368    5.63384
      H1     9.09190  -15.02881    5.27373
       H     6.47816  -18.93026    6.97331
       O     5.87556  -18.20369    6.71444
      H1     6.34912  -17.80254    5.92317
       H     7.63134  -13.22274    3.44683
       O     8.44678  -12.65918    3.44426
      H1     8.07854  -11.77534    3.07093
       H     9.74708  -16.80847    7.64095
       O     8.80020  -17.07618    7.65574
      H1     8.35604  -16.40600    7.01650
       H     4.04647  -20.02493    4.56534
       O     3.70465  -19.44578    5.33427
      H1     4.46837  -19.26710    5.93686
       H    14.45267  -18.45232    5.65237
       O    14.03086  -19.38283    5.45408
      H1    13.71469  -19.56548    6.36709
       H    10.65498  -15.40719   11.21992
       O    11.25476  -15.59834   12.04187
      H1    12.13739  -15.45442   11.65179
       H    12.24305  -12.37750    9.07394
       O    12.84546  -13.10735    8.90438
      H1    13.64548  -12.64180    8.58390
       H     8.85233  -18.08854    1.99419
       O     8.11047  -18.72967    2.00084
      H1     7.69174  -18.48851    1.14867
       H     4.74561  -17.53192    7.82373
       O     4.05228  -17.61462    8.53122
      H1     4.63596  -17.75861    9.35932
       H    13.47248  -14.66649    2.66880
       O    13.59225  -15.59619    2.87583
      H1    12.71194  -15.87803    2.63502
       H     7.93668  -13.05170    7.15184
       O     8.23725  -12.40181    6.43785
      H1     8.06186  -12.85534    5.64038
       H    13.19470  -14.34180   10.21803
       O    13.44719  -15.18404   10.57965
      H1    14.18679  -14.89392   11.17208
       H    14.24159  -16.30946    4.95807
       O    15.10230  -16.67632    5.26477
      H1    15.42819  -17.02043    4.37412
       H     8.44092  -18.99232   10.98173
       O     8.14063  -18.27086   11.63889
      H1     7.21430  -18.16745   11.25615
       H     7.09185  -15.44236   11.24938
       O     6.24267  -15.01546   11.48858
      H1     6.15432  -15.24370   12.43619
       H    14.33418  -15.65194    7.82839
       O    14.68784  -16.35781    8.43827
      H1    14.23210  -16.15038    9.27377
       H     6.22868  -14.68946    4.45003
       O     6.45269  -14.30061    3.56120
      H1     5.86635  -14.81322    3.01064
       H    12.00705  -16.27454    6.98362
       O    11.51528  -17.03790    7.30789
      H1    11.88233  -17.30690    8.18991
       H    12.80079  -18.76103    9.81809
       O    11.98109  -18.26068    9.94067
      H1    12.11197  -17.76664   10.71914
       H    10.64765  -15.37685    3.93057
       O    10.51413  -14.53484    4.47845
      H1     9.82425  -14.05071    3.96568
       H     5.94601  -17.07838    3.60948
       O     6.71359  -17.36123    4.08994
      H1     7.16015  -17.88816    3.43739
       H     3.15444  -16.46488    7.49460
       O     3.19768  -15.76810    6.83149
      H1     3.96795  -15.25890    7.08453
       H    10.72043  -16.94202    2.23192
       O    11.18338  -16.54798    2.96006
      H1    11.59571  -17.33614    3.34886
       H    12.91315  -13.96198    7.20361
       O    13.07583  -14.45173    6.37552
      H1    12.24434  -14.16405    5.94503
       H     5.11333  -18.03897   11.48128
       O     5.60187  -17.64085   10.80002
      H1     5.53503  -16.67390   11.03828
       H     8.48262  -16.74776   11.05573
       O     8.69873  -16.01821   10.42399
      H1     8.62776  -16.52471    9.58864
       H     6.62939  -14.24428    9.21933
       O     6.22322  -14.03902    8.37840
      H1     5.80203  -13.17701    8.48063
       H     9.12577  -18.77836    4.95555
       O     9.14081  -19.05065    5.91405
      H1     9.26372  -18.15327    6.33776
       H    11.94105  -16.84637   13.27722
       O    12.23045  -17.01509   14.18446
      H1    12.03545  -17.94574   14.31766

