90
frame 2 | Written by MDAnalysis XYZWriter (release 2.4.3)
       H     7.46086  -17.39919  -10.77263
       O     8.37146  -17.70934  -10.79570
      H1     8.97501  -17.08754  -10.27016
       H    -2.34904  -15.52083   -9.83598
       O    -1.70609  -14.86484  -10.19690
      H1    -2.28330  -14.08532  -10.13685
       H     6.56425  -19.60615  -13.36825
       O     5.64404  -19.46894  -13.25480
      H1     5.38857  -18.62226  -13.71277
       H     2.48245  -15.80751   -9.88967
       O     1.71945  -15.90789   -9.31909
      H1     1.94601  -15.53787   -8.45100
       H     5.00455  -17.85273  -16.28419
       O     4.77799  -17.96480  -15.33179
      H1     4.66504  -17.07493  -15.02949
       H     5.70292  -17.39619   -9.48253
       O     5.60031  -17.58433  -10.38318
      H1     4.99750  -16.86351  -10.60413
       H    -2.28137  -15.99525  -15.24453
       O    -1.31626  -16.18524  -15.46913
      H1    -0.94219  -16.09536  -14.59261
       H     3.87181  -14.88016  -14.47485
       O     4.54929  -15.47378  -14.07839
      H1     5.32813  -14.86211  -14.07107
       H     2.42474  -18.96529   -4.93719
       O     1.69887  -19.61097   -4.87247
      H1     1.15160  -19.44960   -5.63301
       H     2.35060  -13.45988  -12.22101
       O     3.23897  -13.16776  -12.42912
      H1     3.17023  -12.89858  -13.35586
       H     0.06750  -17.73685  -17.43960
       O    -0.25514  -17.83651  -18.34550
      H1    -0.99631  -18.47060  -18.23595
       H     0.37731  -14.41987  -17.09562
       O     0.68553  -14.65771  -16.17649
      H1    -0.12959  -15.06536  -15.90316
       H     8.31934  -17.41769  -13.77553
       O     7.63632  -16.79227  -13.84160
      H1     7.01458  -17.29163  -14.32840
       H     4.27987  -15.02352  -11.78579
       O     3.91978  -15.73538  -11.26638
      H1     3.56673  -16.24960  -12.01571
       H     3.98880  -13.55616   -9.04605
       O     3.53371  -12.78505   -8.66159
      H1     4.18029  -12.39510   -8.04939
       H     1.22645  -16.11205  -14.18545
       O     0.65761  -15.88669  -13.42111
      H1     0.76480  -14.90930  -13.30710
       H     2.41195  -14.10682   -6.81042
       O     2.01928  -14.97368   -6.73248
      H1     1.00836  -14.85928   -6.79067
       H     6.62155  -14.39447  -12.09075
       O     7.01472  -14.17427  -12.99530
      H1     7.34473  -15.01720  -13.25840
       H    -4.10701  -15.43994  -13.34051
       O    -3.39860  -15.83880  -13.83643
      H1    -3.40520  -16.68026  -13.41730
       H    -0.22635  -17.95052   -9.17191
       O    -0.93483  -17.57430   -8.53817
      H1    -0.60926  -16.68415   -8.37559
       H     1.52973  -18.92594  -15.96854
       O     1.57376  -17.98656  -15.79730
      H1     0.61120  -17.85604  -15.55017
       H     2.23768  -18.49390  -11.60022
       O     3.12738  -18.69334  -11.88540
      H1     3.69159  -18.74161  -11.13503
       H     0.21167  -19.03250  -11.48422
       O     0.42500  -18.33896  -10.88939
      H1     0.15038  -17.54500  -11.35164
       H     2.11548  -13.63380  -15.51245
       O     2.94176  -13.31034  -15.08438
      H1     3.62421  -13.51230  -15.72416
       H     0.44297  -12.36379  -12.26461
       O     0.33533  -13.33495  -12.15007
      H1     0.09380  -13.36977  -11.20546
       H    -1.54677  -17.85842  -15.57979
       O    -1.59767  -18.82734  -15.66085
      H1    -1.33657  -19.12612  -14.73317
       H     6.45337  -13.10184  -10.83916
       O     5.88213  -13.84145  -10.57647
      H1     5.98322  -13.81442   -9.61541
       H    -3.79805  -17.59611   -8.65190
       O    -3.58913  -17.15064   -9.47322
      H1    -2.63272  -17.21072   -9.45814
       H    -0.51154  -18.60410   -7.36768
       O    -0.18597  -19.45426   -6.90269
      H1     0.26286  -19.83879   -7.70433
       H    -3.20368  -19.60895  -12.98346
       O    -3.17673  -18.62623  -12.98259
      H1    -2.26433  -18.44410  -12.75317

