90
frame 2 | Written by MDAnalysis XYZWriter (release 2.4.3)
       H    13.88017    0.75695    7.85534
       O    14.75584    1.12345    7.80996
      H1    15.23658    0.63197    8.49620
       H    14.36911    3.44090   -0.65166
       O    15.10523    3.46203    0.01133
      H1    15.67638    2.69246   -0.06673
       H    16.36198   -0.07786    3.03977
       O    16.48846   -1.01516    3.35847
      H1    15.70098   -1.47677    3.03685
       H    19.02828   -1.41461    0.40020
       O    19.24962   -2.25063   -0.09407
      H1    18.37355   -2.30674   -0.60881
       H    12.53364   -3.69480   -0.31462
       O    12.49357   -3.56192    0.63389
      H1    11.65540   -3.03662    0.60476
       H    14.34989   -3.69161    2.99911
       O    14.28181   -2.81296    2.61651
      H1    13.67797   -2.86250    1.87004
       H    17.90215   -3.47084   -1.89672
       O    17.08095   -3.01933   -1.53966
      H1    16.99532   -2.20423   -2.08392
       H    17.54362   -1.03967    6.24050
       O    18.19885   -0.35123    6.42835
      H1    18.61790   -0.53331    7.31993
       H    13.85433   -1.59173   -0.40258
       O    14.61765   -0.96475   -0.39747
      H1    14.62283   -0.78014   -1.32287
       H    15.74288   -2.97309    1.67133
       O    16.67330   -3.27262    1.45326
      H1    16.86473   -2.99501    0.49614
       H    13.97203    0.69234    0.14391
       O    13.20644    1.30807    0.13286
      H1    13.63464    2.13412    0.31020
       H    14.66105   -4.44554    7.66686
       O    15.26224   -5.01648    8.22895
      H1    14.73185   -4.97767    9.02853
       H    18.39554   -4.58146    0.66331
       O    18.82775   -5.42769    0.68882
      H1    19.58923   -5.26847    1.19664
       H    15.92391    4.10793    1.51685
       O    16.35328    4.55196    2.29406
      H1    17.04158    3.92751    2.43575
       H    16.66166   -6.91141    5.12619
       O    17.15444   -6.65550    5.88881
      H1    17.52723   -5.78635    5.65740
       H    16.95178   -4.44592    8.17341
       O    17.85382   -4.08338    8.23068
      H1    18.31638   -4.49571    7.42222
       H    17.09315    2.57561    7.37969
       O    17.14803    2.12002    6.49816
      H1    17.46387    1.25060    6.74917
       H    18.04918   -1.50133    2.63562
       O    19.01451   -1.49772    2.76216
      H1    19.23851   -0.65859    3.15144
       H    10.00322   -1.56957    0.68586
       O    10.36546   -1.90792    1.49815
      H1    11.02557   -1.20431    1.64327
       H    17.20375    4.39647    5.57052
       O    18.00946    4.21487    5.02388
      H1    18.23906    3.32945    5.36087
       H    19.25458    2.93140    2.02363
       O    18.44951    2.40182    2.27786
      H1    18.81946    2.16405    3.12129
       H    15.83151   -0.96059    5.00058
       O    15.51691   -1.10975    5.95479
      H1    15.37154   -0.23036    6.31035
       H    16.96124   -7.41348    2.58893
       O    17.39591   -6.70950    3.11864
      H1    18.02587   -6.25923    2.47832
       H    12.17740   -3.19846    3.49993
       O    11.66251   -2.62371    4.05415
      H1    12.33387   -2.60333    4.81566
       H    12.74974    1.43533    5.39438
       O    13.34894    1.66987    4.63340
      H1    12.92677    1.26484    3.84785
       H    13.08227    0.17470    1.63312
       O    12.66907   -0.10380    2.46839
      H1    13.32695   -0.78731    2.71097
       H    15.78111   -5.60621    2.91742
       O    14.84579   -5.39066    3.13154
      H1    14.32759   -5.72908    2.33118
       H    15.13510    1.69056    4.26507
       O    15.96185    1.76410    3.79628
      H1    16.57559    1.93469    4.47451
       H    14.39741   -2.51938    6.19543
       O    13.78176   -3.25916    6.03676
      H1    13.50511   -3.43726    6.92097
       H    18.11110    2.02129    0.49034
       O    17.76491    1.61095   -0.34720
      H1    17.90314    2.25491   -1.04932

