90
frame 3 | Written by MDAnalysis XYZWriter (release 2.4.3)
       H   -12.75866    7.38891   13.61858
       O   -11.94614    7.06544   14.05815
      H1   -11.66024    7.77198   14.62047
       H   -10.52311    7.24567   13.33091
       O    -9.71119    7.60164   12.88774
      H1    -9.05471    7.62573   13.58224
       H   -13.78192    9.91713   13.75738
       O   -13.43887   10.76617   13.47491
      H1   -12.46643   10.67407   13.45671
       H   -10.68769    3.97361   14.03380
       O   -10.84242    4.51898   13.25404
      H1   -11.30414    5.25048   13.72213
       H   -10.09453    2.02757   15.73483
       O   -10.18581    2.96908   15.64392
      H1    -9.97598    3.27091   16.56180
       H   -15.55056    8.83611   14.18894
       O   -14.90787    8.39059   13.69291
      H1   -15.38824    8.15449   12.87315
       H    -9.16618   11.49367    8.51921
       O    -8.80010   10.65922    8.30099
      H1    -9.54640    9.98914    8.41537
       H    -9.86890    4.98165    9.26343
       O    -9.37447    5.69873    9.52616
      H1    -8.95399    5.47339   10.42239
       H    -8.32849    3.29388   14.45620
       O    -7.80680    2.70020   13.88239
      H1    -7.36306    2.02830   14.39974
       H    -8.06697   12.16201   12.02550
       O    -8.61346   12.72130   12.65089
      H1    -9.21921   12.04118   13.07053
       H    -5.72764   10.94478   15.77829
       O    -5.76435    9.99271   15.92681
      H1    -6.26624    9.68418   15.16188
       H    -6.66781    7.81262   13.88405
       O    -7.34207    8.32479   14.33157
      H1    -7.71184    7.69000   15.00624
       H   -11.66065    9.47440    7.52416
       O   -10.90264    8.96303    7.90355
      H1   -10.85714    8.17890    7.31036
       H   -10.14557   10.10812   14.54915
       O    -9.93227   10.45628   13.64232
      H1    -9.31647    9.74865   13.33491
       H    -7.91852   10.42653   18.23329
       O    -7.89500    9.66014   17.54090
      H1    -7.10792    9.91173   16.98757
       H   -11.02585    9.06873   11.88358
       O   -11.45418    9.53247   11.08348
      H1   -11.13794    9.01847   10.35143
       H    -8.91634    5.47412   12.42315
       O    -8.17713    5.11088   11.89926
      H1    -8.48755    4.20684   11.67963
       H    -7.65078   11.20062    9.94176
       O    -7.24890   11.16928   10.80407
      H1    -6.47195   11.79561   10.78165
       H    -8.66442    2.23543   12.45200
       O    -9.02511    2.42972   11.54155
      H1    -9.94415    2.13278   11.70120
       H   -11.23024    6.32487    9.62634
       O   -12.21944    6.13724    9.45573
      H1   -12.09677    5.57264    8.72993
       H   -10.86620   12.45709   11.88680
       O   -11.58313   12.13497   11.34289
      H1   -11.39322   11.17622   11.29712
       H    -5.98450    9.73545   11.13500
       O    -5.39706    8.98591   11.10732
      H1    -4.92412    9.10829   10.27473
       H    -7.24246    5.60106    7.37791
       O    -7.59679    6.42347    7.83765
      H1    -8.37999    6.01882    8.33558
       H    -5.24320    4.29784   13.86225
       O    -5.77958    4.47181   14.65492
      H1    -6.59491    4.17910   14.29624
       H    -5.91042    7.57216   11.96479
       O    -5.85525    6.66152   12.35901
      H1    -6.60126    6.12687   11.99231
       H   -12.42449    1.90851   11.40435
       O   -11.55345    1.84426   11.87752
      H1   -11.67699    2.69231   12.37623
       H    -9.87164    9.17835   16.28084
       O   -10.78338    9.17222   15.93496
      H1   -11.32049    8.91691   16.75429
       H   -14.08521   10.18001   11.48366
       O   -14.21549   10.43651   10.53666
      H1   -15.04924   10.94277   10.75206
       H    -7.98339    5.87241   16.55659
       O    -8.36318    6.75120   16.22381
      H1    -8.13183    7.37981   16.95423
       H   -13.74237    8.89057    9.61444
       O   -14.20060    8.08350    9.30409
      H1   -13.67048    7.32397    9.71804

