90
frame 3 | Written by MDAnalysis XYZWriter (release 2.4.3)
       H    15.43238    4.77422    4.09004
       O    14.96824    5.49892    4.52716
      H1    14.06797    5.20897    4.37673
       H    14.74705    2.65380   -1.43265
       O    14.87414    2.17971   -0.56024
      H1    15.77806    1.77832   -0.59980
       H    16.51771   10.93404    0.17565
       O    17.22284   10.44000    0.59944
      H1    17.19395   10.83397    1.45273
       H    13.20157    6.60605   -5.73206
       O    12.58249    7.32820   -5.36511
      H1    13.21059    7.87680   -4.79558
       H    16.67067    8.88481   -0.22742
       O    16.55058    7.91404   -0.25344
      H1    17.05134    7.55633    0.51449
       H    17.65330    7.12615    2.98385
       O    17.64919    6.56975    2.16654
      H1    16.84421    6.07687    2.26891
       H    17.16467    8.52873   -3.90675
       O    16.42856    8.76426   -4.50102
      H1    15.68082    8.85349   -3.93632
       H    13.96117    4.92564   -1.53172
       O    13.75048    4.23179   -2.18293
      H1    12.78078    4.32193   -2.08235
       H    14.74419    4.33186   -5.21742
       O    14.50482    3.39761   -5.07071
      H1    13.90378    3.55385   -4.34444
       H    13.96233   11.86578    2.19493
       O    14.77791   12.43400    2.02256
      H1    15.45320   11.89830    2.41844
       H    13.11065    9.82459   -3.37404
       O    13.52910    8.94659   -3.41699
      H1    13.29954    8.77738   -2.44595
       H    14.48507   12.00453    0.25597
       O    14.56310   11.64918   -0.64011
      H1    13.62696   11.19215   -0.68749
       H    15.18208    4.05526    1.20456
       O    15.99314    4.28221    1.58868
      H1    16.28078    3.41554    1.96031
       H    11.74760    8.08728    2.23370
       O    12.54172    8.69762    2.06991
      H1    12.50255    8.67483    1.07832
       H     9.40676    4.99987    0.02836
       O    10.21744    5.49483    0.00828
      H1    10.84795    5.01167    0.56117
       H    16.17402   10.79479   -3.72807
       O    16.54972   11.14519   -2.88061
      H1    15.66168   11.27929   -2.36634
       H    16.68636    6.44582   -3.27288
       O    16.51116    5.53654   -3.04567
      H1    15.55036    5.48876   -3.03455
       H    14.48841    6.07035    2.86331
       O    13.83189    6.21257    2.19960
      H1    13.53731    7.14607    2.28456
       H    10.30114    6.67343    1.75267
       O    10.42485    7.03524    2.61579
      H1     9.66147    7.53637    2.81601
       H    14.91307    6.94722   -0.39494
       O    14.18830    6.37157   -0.56788
      H1    13.82178    6.11573    0.31453
       H     9.20796    9.31527   -1.44169
       O     9.74369    9.38980   -0.62717
      H1    10.11332   10.27714   -0.59272
       H    11.74377   11.65634    2.20438
       O    12.46802   11.24637    2.69417
      H1    12.37593   10.26998    2.63594
       H    11.53450    3.56402    2.16519
       O    12.08303    4.09167    1.59585
      H1    12.67885    4.52832    2.19958
       H    19.85844   10.54898   -0.46035
       O    19.44048   11.24622   -1.07254
      H1    18.56283   10.88716   -1.15578
       H    11.57939    8.52302   -0.63030
       O    12.51922    8.69397   -0.80290
      H1    12.98262    7.92743   -0.44432
       H    17.63700    4.61508   -2.10769
       O    18.34704    3.97308   -1.80598
      H1    18.68014    4.31254   -0.93044
       H    20.06752    4.91608    1.27487
       O    19.51583    5.09559    0.44863
      H1    18.71153    5.54784    0.78968
       H    19.08309    7.72868   -3.04003
       O    18.08280    7.75011   -2.82832
      H1    18.01400    7.85927   -1.86970
       H    17.32775    8.60371    4.70435
       O    17.66812    8.63680    3.81528
      H1    18.60422    8.61641    4.00484
       H    17.76744    2.21040    0.32799
       O    17.50379    1.65396   -0.40192
      H1    17.70392    2.32095   -1.11692

