90
frame 2 | Written by MDAnalysis XYZWriter (release 2.4.3)
       H     3.41789  -10.85136   16.92293
       O     3.65820   -9.96820   17.18678
      H1     3.38912   -9.98880   18.09333
       H     4.46831  -10.68565   11.60477
       O     3.59308  -10.26534   11.66394
      H1     3.05381  -10.96167   11.27756
       H     8.82942   -8.40200    8.75739
       O     9.24361   -7.68245    9.26397
      H1     9.09725   -8.13067   10.09334
       H     7.20593   -8.85280   18.61627
       O     6.30596   -8.96048   18.92483
      H1     5.87015   -9.62797   18.39519
       H    10.94138   -4.38276   14.69854
       O    11.56699   -3.88212   15.19830
      H1    12.11670   -4.54648   15.68933
       H    11.57663  -11.37314   10.89691
       O    11.05597  -11.25897   10.11258
      H1    10.29772  -10.75939   10.35638
       H     5.59046  -11.62628   12.47275
       O     6.23060  -11.59990   11.68059
      H1     5.97757  -12.48216   11.27624
       H     6.14772   -6.38723   16.64989
       O     6.89206   -6.41873   15.97912
      H1     7.03288   -7.38838   16.07262
       H     8.23527   -6.08460   16.89636
       O     9.03929   -5.74220   17.28410
      H1     9.01104   -6.36465   18.04787
       H    11.41578   -7.24308   10.85662
       O    11.02693   -7.32295   11.69861
      H1    10.74894   -6.41365   11.80465
       H     9.40694   -8.63825   18.41980
       O     8.92742   -8.18620   19.15552
      H1     9.00588   -8.84435   19.90644
       H     6.90650   -8.31884   11.69616
       O     6.83038   -7.90729   12.59964
      H1     5.82128   -7.79407   12.67031
       H    10.68331  -13.53119   14.36008
       O    11.18674  -14.20452   14.76555
      H1    11.31030  -14.78621   13.99630
       H     8.80859  -11.32859   15.15932
       O     8.85080  -12.27393   14.99987
      H1     8.20522  -12.56231   15.66239
       H     2.65432   -9.40795   15.85635
       O     2.08003   -8.92887   15.27242
      H1     2.71182   -8.58715   14.62821
       H     5.56480   -8.28153   15.20001
       O     5.76977   -9.06611   15.72738
      H1     5.05702   -9.07476   16.34693
       H     3.33515   -7.30600   13.26485
       O     4.00683   -7.96558   13.41835
      H1     3.74445   -8.64337   12.80779
       H    11.16600   -8.73362   13.04400
       O    11.19023   -9.64995   13.36474
      H1    10.54620   -9.52132   14.05739
       H    11.96459   -5.34550   17.42231
       O    11.98195   -6.24115   17.11131
      H1    11.05264   -6.32091   16.91383
       H     8.82658  -12.19703   13.37020
       O     8.67178  -12.12992   12.39701
      H1     7.72226  -11.93905   12.33622
       H     6.89592   -5.73964   14.29363
       O     6.72771   -5.18650   13.50500
      H1     6.70535   -5.88354   12.80382
       H     6.51313  -12.28715   18.12511
       O     7.24090  -12.14396   17.50001
      H1     8.03997  -12.46259   18.04349
       H    12.29288   -7.45501   18.02858
       O    12.50580   -8.30294   18.48953
      H1    13.25381   -8.68908   17.98672
       H     9.98124   -9.53864   11.85829
       O     9.12348   -9.57188   11.40780
      H1     8.73418  -10.42557   11.68164
       H    13.13332   -9.04157   14.25014
       O    13.98980   -8.71745   14.53033
      H1    13.68996   -7.86315   14.86938
       H    11.26273   -9.34369   17.79281
       O    10.41765   -9.76209   17.47859
      H1    10.63815  -10.63130   17.88560
       H     7.33851   -9.41442   14.98017
       O     8.23919   -9.21378   14.58701
      H1     8.05464   -8.71533   13.78205
       H     4.23770  -11.72926   14.47541
       O     5.20841  -11.50772   14.31917
      H1     5.30457  -10.62856   14.75728
       H     8.98219   -4.91519   13.03061
       O     9.90573   -4.67746   13.17781
      H1     9.87266   -3.72242   12.98800
       H     6.22403  -13.61673   16.05053
       O     5.93957  -13.97744   15.21111
      H1     5.85014  -13.08012   14.77385

