90
frame 3 | Written by MDAnalysis XYZWriter (release 2.4.3)
       H    -0.96369   14.73283   -2.05693
       O    -1.55005   14.49270   -1.32840
      H1    -1.60671   15.34944   -0.90045
       H    -3.32219   12.39539   -7.97559
       O    -2.74027   11.82465   -8.39500
      H1    -1.90670   12.18758   -8.01377
       H    -5.14048   16.69408   -5.07015
       O    -4.27576   16.43072   -4.65288
      H1    -4.58152   15.91648   -3.84201
       H     2.25502   19.50013   -4.78579
       O     1.47415   18.96102   -4.71588
      H1     1.13100   19.09973   -5.63694
       H     1.97078   16.29251  -10.83533
       O     2.19064   17.20741  -10.83497
      H1     1.44346   17.40315  -11.48829
       H     3.87602   12.47023   -2.44363
       O     3.45869   13.21716   -2.88310
      H1     2.86317   12.69764   -3.47991
       H    -3.58070   17.90856   -4.75518
       O    -3.41410   18.92663   -4.78950
      H1    -4.16995   19.24950   -4.21840
       H    -1.99224   15.99995   -5.60532
       O    -1.12821   16.38755   -5.29990
      H1    -1.07386   17.09364   -5.96112
       H     1.24739   14.73676   -6.91854
       O     0.50092   15.33136   -7.24906
      H1     0.00462   15.53591   -6.44798
       H     0.51276   13.92103   -2.57750
       O     0.15317   14.12339   -3.47418
      H1    -0.51022   13.37585   -3.60093
       H     0.02655   12.58086   -8.21471
       O    -0.45430   12.63759   -7.35044
      H1    -0.54481   13.66337   -7.43563
       H     2.58317   14.55045   -4.91311
       O     2.04919   13.75826   -5.24089
      H1     1.36130   13.83298   -4.53192
       H    -2.37013   13.12140   -4.45940
       O    -1.89380   12.53423   -3.85620
      H1    -2.59348   12.14818   -3.37187
       H    -3.77522   16.60822   -8.18209
       O    -3.44905   15.64620   -8.29531
      H1    -4.24123   15.26166   -8.72655
       H    -3.09271   14.40324   -6.81064
       O    -2.97996   14.36437   -5.83920
      H1    -3.59048   15.06582   -5.59123
       H     5.29694   17.04870   -6.79737
       O     4.52823   17.70370   -6.69355
      H1     3.82344   17.33639   -7.33137
       H     0.63034   14.39030  -11.65265
       O     1.33672   14.62929  -12.22080
      H1     1.05555   14.07621  -12.99247
       H    -1.76337   17.17771  -10.98831
       O    -2.58828   16.72708  -11.16959
      H1    -2.94470   16.63102  -10.24416
       H    -1.01821   18.49136   -2.99798
       O    -1.03218   17.57951   -2.62524
      H1    -1.11354   17.03447   -3.41487
       H     0.05869   12.43340  -10.70213
       O    -0.14889   13.27559  -10.15348
      H1    -1.05808   13.45138  -10.41340
       H     5.57389   15.10194   -7.19939
       O     6.26825   15.82433   -7.00240
      H1     6.44096   15.49267   -6.07698
       H     1.26777   16.04530   -3.54043
       O     1.97090   16.62779   -3.21483
      H1     1.82613   17.42823   -3.77322
       H     2.83706   13.63207  -11.37482
       O     3.60416   13.10454  -11.19507
      H1     4.24811   13.82421  -11.21973
       H     3.57849   13.10217   -7.47590
       O     4.30148   13.63773   -7.92612
      H1     4.29528   13.27981   -8.82846
       H     4.18183   16.12616   -4.09258
       O     4.04488   15.77621   -4.99272
      H1     4.21390   16.49499   -5.61838
       H    -0.82942   19.39183   -7.64548
       O    -0.47289   18.67625   -7.11385
      H1     0.30998   18.48135   -7.61562
       H     0.86477   11.14979   -4.30553
       O     1.54612   11.22937   -3.61516
      H1     1.82972   10.27596   -3.52307
       H     2.40171   12.22142   -5.68622
       O     2.75531   11.58649   -6.35370
      H1     2.41837   10.81027   -5.98633
       H     1.65921   16.94449   -7.55979
       O     2.22881   17.59429   -8.00247
      H1     2.02194   17.49507   -8.99167
       H    -0.45362   11.33001   -6.10423
       O    -0.29674   10.53136   -5.52826
      H1    -1.05375   10.51383   -4.95466

