90
frame 3 | Written by MDAnalysis XYZWriter (release 2.4.3)
       H    -5.78126  -10.28827   18.93936
       O    -6.49774  -10.62519   18.33836
      H1    -5.91569  -11.36211   17.93492
       H    -8.37850  -11.53136    8.14068
       O    -8.07607  -12.16004    8.85047
      H1    -8.57092  -11.85577    9.61503
       H   -10.39777  -10.43651   11.50074
       O   -10.20061  -10.72110   10.62969
      H1   -10.91950  -11.14799   10.21712
       H    -8.56520  -10.20537   14.32236
       O    -8.12658   -9.35124   14.31246
      H1    -7.32706   -9.66539   13.80337
       H    -8.63971   -7.59691   12.50893
       O    -7.89787   -7.69632   11.88236
      H1    -8.35251   -7.45442   11.04693
       H    -6.83201  -13.34021   10.81673
       O    -6.87472  -14.15660   11.37638
      H1    -6.36878  -14.81685   10.79471
       H   -13.60613  -12.06357   15.20546
       O   -14.22261  -11.69086   14.55492
      H1   -14.50643  -12.55172   14.06356
       H    -5.83967  -14.35945   12.65073
       O    -5.41934  -14.74533   13.48559
      H1    -6.02783  -15.44530   13.67482
       H   -13.42710  -13.28377   17.70281
       O   -13.09573  -13.61222   16.88418
      H1   -12.12332  -13.63373   17.04315
       H    -9.15191   -7.76557   14.15163
       O    -9.65035   -7.01771   13.78131
      H1   -10.52819   -7.42891   13.59347
       H    -6.09411   -9.44888   12.21717
       O    -5.82040   -9.94864   12.94086
      H1    -5.01744   -9.56364   13.33635
       H    -4.46415  -13.11727   16.13530
       O    -3.85429  -13.23056   15.37866
      H1    -4.56056  -13.31918   14.67710
       H    -8.01088   -6.79454   16.25036
       O    -8.76911   -6.18464   16.32240
      H1    -9.22321   -6.36351   15.40803
       H    -6.73302   -9.12290   17.28981
       O    -6.73825   -8.42505   16.56970
      H1    -7.18912   -8.88343   15.83328
       H   -13.05553  -11.36035   10.83604
       O   -12.64727  -12.07074   11.32633
      H1   -13.09770  -12.88688   11.09125
       H    -5.44129  -13.51426   17.44864
       O    -4.99963  -12.71499   17.84447
      H1    -4.24189  -13.03130   18.34629
       H   -10.47701   -7.17466   16.82203
       O   -11.22878   -7.72264   16.82993
      H1   -10.77972   -8.45965   17.24475
       H    -8.92463  -16.05503   13.45651
       O    -9.48260  -15.24057   13.66810
      H1    -9.52332  -14.78641   12.81837
       H   -12.91683   -8.37748   13.73279
       O   -12.51480   -7.54147   14.05472
      H1   -12.14251   -7.93877   14.88827
       H   -11.99982  -13.72844   13.74624
       O   -11.57144  -12.90098   13.90620
      H1   -12.06407  -12.27331   13.41022
       H   -12.51984  -16.44740   13.94577
       O   -12.14848  -15.80082   13.36813
      H1   -11.23986  -15.74280   13.78793
       H   -10.04116  -13.15125   16.27210
       O   -10.49380  -13.27766   17.13548
      H1   -10.64845  -12.37857   17.49579
       H    -9.04550  -14.75041   19.35951
       O    -9.21829  -13.80717   19.45480
      H1    -9.51664  -13.57852   18.58817
       H   -13.17466  -10.01822   12.30745
       O   -12.86139  -10.00646   13.23630
      H1   -13.42263  -10.77739   13.55483
       H   -10.38088  -15.93040   15.69057
       O   -11.16611  -16.46517   15.91132
      H1   -10.97167  -17.39539   15.72519
       H   -10.04647  -11.95160   14.56456
       O    -9.09496  -11.88060   14.49831
      H1    -8.78467  -12.79671   14.22372
       H   -11.12182  -13.73480   11.11464
       O   -10.29308  -14.23387   10.93784
      H1    -9.62504  -13.55707   10.90752
       H    -9.48449   -9.84742   18.20255
       O   -10.31760  -10.08901   17.82128
      H1   -10.87301  -10.30480   18.60575
       H    -6.83684  -15.67470   16.59988
       O    -6.35083  -15.08532   17.15514
      H1    -6.18775  -15.68739   17.93243
       H    -5.12704  -12.02408   10.23250
       O    -5.81938  -11.60934   10.71644
      H1    -5.56076  -11.46076   11.66044

