90
frame 3 | Written by MDAnalysis XYZWriter (release 2.4.3)
       H    -2.32641   15.52620    6.75365
       O    -2.30135   15.13428    5.83813
      H1    -1.31887   15.21473    5.57519
       H     0.03448   11.41922   12.00336
       O    -0.25906   11.41075   11.09285
      H1     0.34126   10.84622   10.62921
       H    -2.69202   17.66607   10.12576
       O    -3.25074   18.10104   10.80571
      H1    -2.67196   18.31791   11.49660
       H    -0.82916   10.19230    5.92789
       O    -1.36551    9.68380    5.30163
      H1    -0.73102    9.19823    4.77558
       H    -1.52471   11.70009    8.36653
       O    -2.14657   11.69554    9.13160
      H1    -1.46186   11.53016    9.78949
       H    -3.60787   13.72475    5.26152
       O    -4.20910   13.03203    5.02407
      H1    -4.40222   12.67629    5.89977
       H    -5.89816   17.31449    6.15905
       O    -5.24853   16.76129    6.59657
      H1    -4.75310   16.36755    5.79567
       H    -0.27334   13.30126    3.40906
       O    -0.49368   13.05846    4.34774
      H1    -1.39613   12.69493    4.13659
       H     1.42830   15.07226    5.80216
       O     1.04041   14.21852    6.10042
      H1     0.57727   13.89945    5.27952
       H     0.87652   11.32671    7.16244
       O    -0.00152   11.68830    7.01260
      H1     0.16322   12.65087    6.81109
       H    -2.38740   15.27496    3.89959
       O    -2.04966   15.30206    3.02270
      H1    -2.78374   15.74598    2.49004
       H     2.72401   12.10889    8.19590
       O     2.88887   11.20056    7.86792
      H1     2.97069   11.50951    6.98917
       H     1.00184   15.96426   11.35906
       O     0.86122   16.92066   11.66997
      H1    -0.13153   17.02148   11.69616
       H    -4.23840   13.24275   10.08526
       O    -4.98189   12.85231   10.59555
      H1    -5.27217   13.59822   11.12237
       H    -2.26871   13.83506   10.32742
       O    -2.57924   14.67074    9.93386
      H1    -1.97979   14.84198    9.19329
       H    -3.73428   17.41648    7.76893
       O    -2.80677   17.56868    8.00910
      H1    -2.80438   18.53507    8.02191
       H     4.92095   13.15527    6.79769
       O     4.12419   13.73738    6.62014
      H1     4.34401   14.10055    5.74549
       H     2.01925   13.89207   11.31750
       O     1.68074   14.43640   10.57847
      H1     1.03007   13.85219   10.17537
       H     1.31471   18.41017    8.84744
       O     0.63577   17.79317    9.13281
      H1     1.05547   17.45820   10.00892
       H    -1.89820   15.11432   11.53065
       O    -1.78315   14.89254   12.47930
      H1    -2.67489   14.99761   12.79702
       H    -0.17703   15.60937    8.29109
       O    -0.46717   14.70748    8.21710
      H1    -0.05413   14.45361    7.44723
       H     1.54521   16.93306    5.01580
       O     2.36302   16.67227    5.45957
      H1     2.83917   17.49969    5.33154
       H    -3.61265   10.44089    8.94190
       O    -3.97333    9.54281    8.81526
      H1    -4.73294    9.81682    8.21423
       H     3.79926   14.68074    8.28152
       O     4.07918   14.76208    9.22451
      H1     3.22042   14.52780    9.69738
       H    -3.02453   17.93483    5.84055
       O    -2.53927   18.21121    5.07418
      H1    -3.02621   17.86025    4.31810
       H     3.50250   15.64613    4.65738
       O     4.17868   15.06477    4.22722
      H1     4.76378   15.69106    3.78303
       H    -0.06401   16.81004    3.75270
       O     0.03909   17.48812    4.40168
      H1    -0.89701   17.57754    4.71020
       H     2.14874   10.16097    4.23809
       O     1.91675   10.77562    4.91989
      H1     1.09659   11.14363    4.45912
       H    -3.58478   11.74439    4.05810
       O    -2.87628   11.32039    3.53980
      H1    -2.45138   10.68043    4.13272
       H     0.66175   14.91787    1.83656
       O     0.61789   13.91292    1.90450
      H1     1.55968   13.71676    1.91764

