90
frame 3 | Written by MDAnalysis XYZWriter (release 2.4.3)
       H    -9.17298   11.68257  -10.36178
       O    -8.31995   11.28151  -10.20202
      H1    -7.90038   11.53786  -11.03305
       H   -11.48035   19.66414   -8.64481
       O   -11.60706   19.45000   -9.59711
      H1   -11.66732   18.47953   -9.59324
       H   -11.71408    9.13911  -10.54319
       O   -11.04693    8.44079  -10.46579
      H1   -10.49031    8.71482   -9.72656
       H    -8.66855   13.41190  -14.64936
       O    -9.33712   12.96705  -15.23744
      H1    -9.97471   12.60712  -14.60605
       H    -6.67543   12.59515   -7.27880
       O    -6.99489   13.47969   -7.35551
      H1    -6.82247   13.73788   -6.42498
       H   -12.50992   10.80113  -12.21953
       O   -12.85095   10.49304  -11.36979
      H1   -13.11581   11.34122  -11.00778
       H   -14.03143   15.89582  -12.00297
       O   -13.34125   16.52501  -11.85645
      H1   -13.53128   17.20619  -12.51452
       H    -7.19497    9.15400  -11.31116
       O    -6.41582    8.74307  -10.96982
      H1    -6.75366    8.21721  -10.18308
       H    -6.02749   11.82491   -9.34599
       O    -5.61646   12.32856  -10.04025
      H1    -6.15238   12.08881  -10.80494
       H    -7.38725   19.01564   -8.30535
       O    -7.44015   18.18805   -7.82923
      H1    -8.00705   17.68317   -8.45205
       H   -10.66206   16.88530   -6.98254
       O    -9.67595   16.69211   -6.92949
      H1    -9.33781   17.41500   -6.35800
       H    -9.72257   13.65428  -10.14543
       O   -10.39704   12.96889   -9.88848
      H1   -10.35423   13.04282   -8.90313
       H   -10.00636   14.79212  -12.32417
       O    -9.15755   14.52764  -11.93134
      H1    -9.05945   15.27153  -11.32072
       H   -12.79104   15.88508   -7.98149
       O   -12.50135   16.79029   -7.70599
      H1   -13.32457   17.19736   -7.36331
       H    -7.90375   14.44908  -13.34854
       O    -7.39858   14.32026  -14.15498
      H1    -7.16521   15.22394  -14.30960
       H    -5.36323   14.99404  -10.62621
       O    -5.68215   15.04689   -9.69416
      H1    -5.81430   14.05535   -9.43180
       H    -8.24573   14.12163   -5.15301
       O    -7.38514   14.58379   -5.00237
      H1    -7.08115   14.12561   -4.19565
       H    -7.48711   15.34742   -9.82507
       O    -8.02735   16.13757   -9.97729
      H1    -7.48896   16.68166  -10.57343
       H   -11.19091   15.52823  -13.75273
       O   -11.52850   14.95927  -13.02579
      H1   -12.20760   15.55145  -12.60626
       H   -12.23581   11.94833  -14.19184
       O   -11.49863   12.10023  -13.59272
      H1   -11.57787   13.00707  -13.27285
       H   -11.48076   16.86972   -9.24411
       O   -11.28260   16.93632  -10.18246
      H1   -12.11078   16.63939  -10.61826
       H    -8.60648   13.71493   -7.61146
       O    -9.50937   14.02857   -7.39403
      H1    -9.42100   14.99850   -7.30697
       H    -6.59606   12.74304  -13.32211
       O    -6.38263   11.89560  -12.85668
      H1    -5.45514   11.65076  -13.05737
       H   -10.43128   10.23735   -8.62032
       O    -9.61744    9.66146   -8.54728
      H1    -9.05696   10.22118   -9.11648
       H    -9.49288   18.53577  -12.58749
       O   -10.19202   17.85843  -12.66440
      H1   -10.31831   17.65609  -11.72555
       H   -13.49661   13.06174   -9.41334
       O   -13.02785   12.92314  -10.27661
      H1   -12.06630   13.07036  -10.06475
       H   -12.31989   13.64054   -6.61989
       O   -12.07566   13.59684   -7.59867
      H1   -11.12795   13.79802   -7.54991
       H    -7.20278   17.20940  -13.13179
       O    -7.65861   17.19168  -13.96946
      H1    -8.58618   17.25756  -13.67899
       H   -12.32156   11.56963   -8.03771
       O   -12.08277   10.71109   -8.42066
      H1   -12.35146   10.85057   -9.31761
       H    -5.60265   10.25959   -8.05085
       O    -6.36803   10.83518   -7.90736
      H1    -6.98573   10.24989   -7.50263

