90
frame 2 | Written by MDAnalysis XYZWriter (release 2.4.3)
       H    14.95954    0.33957   12.44352
       O    14.92096   -0.44336   13.03650
      H1    15.59947   -0.21619   13.68987
       H     7.09171    2.57699   13.73137
       O     8.00427    2.86403   13.87590
      H1     8.32975    2.69013   12.97486
       H    11.82872    1.05309   10.90480
       O    11.20375    0.69493   10.24109
      H1    11.55746   -0.22813   10.26885
       H     7.47962    3.07607   11.18591
       O     8.44981    3.05936   11.23471
      H1     8.64064    2.22365   10.75931
       H     9.53296   -1.35612   13.57421
       O    10.11437   -1.64322   12.87372
      H1    10.74291   -0.88906   12.82933
       H    13.06937    0.75996   16.51275
       O    12.39886    1.20831   16.01588
      H1    11.59667    1.37656   16.56186
       H     9.94676   -2.85152   15.71468
       O     9.06550   -2.93102   16.14071
      H1     9.23293   -3.84124   16.53255
       H    10.94138   -4.38276   14.69854
       O    11.56699   -3.88212   15.19830
      H1    12.11670   -4.54648   15.68933
       H     3.51735   -1.10594    9.93649
       O     4.43814   -1.03083    9.60517
      H1     5.03111   -1.25364   10.34855
       H     9.16876   -2.13092   20.17041
       O     8.98258   -2.03801   19.21276
      H1     9.65462   -2.62100   18.78334
       H     5.90532    0.22584   12.41390
       O     5.95074   -0.66919   12.01151
      H1     6.28280   -1.33717   12.67637
       H    11.06365   -2.29834   10.94529
       O    11.54703   -2.09685   10.14681
      H1    12.44016   -2.17900   10.45379
       H    11.41578   -7.24308   10.85662
       O    11.02693   -7.32295   11.69861
      H1    10.74894   -6.41365   11.80465
       H    14.48177   -1.51224   11.54241
       O    14.16290   -1.80987   10.66955
      H1    14.31878   -2.78072   10.73760
       H    13.84387    2.68989   13.05621
       O    13.97583    2.02807   12.38079
      H1    14.77904    2.19740   11.89746
       H    12.36967    0.47554   14.46910
       O    12.17973    0.03917   13.62363
      H1    12.53926    0.76386   13.07955
       H     6.56319    1.73940   16.01278
       O     6.87438    2.00775   16.90109
      H1     7.82835    1.99464   16.80864
       H    12.55069   -3.14038   18.35837
       O    11.75820   -3.72999   18.24740
      H1    11.86394   -4.24688   19.09384
       H     9.34796    0.24538   10.61805
       O     8.40779    0.52745   10.57510
      H1     7.84793   -0.14096   10.99249
       H    10.55993   -2.57057    8.71682
       O     9.82642   -2.99662    8.19720
      H1     9.49128   -2.30663    7.55643
       H     6.89592   -5.73964   14.29363
       O     6.72771   -5.18650   13.50500
      H1     6.70535   -5.88354   12.80382
       H    12.51587   -2.18948   15.61521
       O    13.34717   -1.70239   15.68993
      H1    13.35406   -1.26532   14.80221
       H    13.48542    3.87948   15.17798
       O    13.80916    3.03504   14.76516
      H1    13.42401    2.34255   15.45087
       H     7.47745   -2.61513    9.08053
       O     7.41696   -3.30042    9.75896
      H1     8.27197   -3.62424    9.89237
       H     5.38948    0.10434   14.74113
       O     5.98839    0.82013   14.46425
      H1     6.93251    0.47982   14.64175
       H     7.25996   -2.26506   14.95685
       O     6.54109   -2.62318   14.46599
      H1     6.84874   -3.49526   14.26368
       H     8.98219   -4.91519   13.03061
       O     9.90573   -4.67746   13.17781
      H1     9.87266   -3.72242   12.98800
       H     9.74858    0.53595   18.03780
       O     9.68016   -0.13580   17.36509
      H1     9.35271   -0.87080   17.91520
       H     3.79206   -2.75580   16.06614
       O     4.02379   -3.57495   15.63753
      H1     4.77153   -3.35379   15.04101
       H     8.73259   -0.23328   15.75690
       O     8.36187   -0.06621   14.87058
      H1     8.91614    0.65120   14.60698

