90
frame 3 | Written by MDAnalysis XYZWriter (release 2.4.3)
       H    -2.00683  -10.22742  -14.19330
       O    -1.66457   -9.49282  -13.63633
      H1    -2.21142   -9.65104  -12.83944
       H    -5.07469   -7.77219  -10.38772
       O    -5.42161   -7.74204   -9.50858
      H1    -5.24011   -6.80473   -9.25611
       H    -4.12398  -12.56157  -15.76152
       O    -4.80791  -13.18042  -16.05954
      H1    -5.50861  -12.55526  -16.33722
       H    -5.48617  -13.84618  -14.17765
       O    -5.83087  -13.83057  -13.28676
      H1    -6.60452  -13.26911  -13.33633
       H    -2.28596  -11.50426  -15.90607
       O    -2.78436  -11.53734  -15.06426
      H1    -2.26716  -12.30688  -14.66326
       H   -11.98165   -9.59557  -10.77670
       O   -12.35315   -9.40827  -11.69991
      H1   -12.83412  -10.23222  -11.73695
       H    -9.95316   -8.05875   -9.68503
       O   -10.89401   -7.84627   -9.40736
      H1   -11.17346   -7.40015  -10.18686
       H    -8.91806  -11.54759  -13.71324
       O    -8.24443  -12.12416  -14.06970
      H1    -7.95716  -11.49321  -14.79658
       H    -9.04762   -9.14655  -16.09334
       O    -8.54394   -8.40747  -15.81745
      H1    -8.14067   -8.86948  -15.11378
       H    -8.54975   -5.70122  -12.61194
       O    -9.11163   -6.34852  -13.01309
      H1    -8.95228   -6.22205  -13.97697
       H   -10.80275   -6.58970  -12.08565
       O   -11.52420   -6.31386  -11.54611
      H1   -12.32086   -6.66339  -11.94559
       H    -5.70969   -4.25226  -13.53244
       O    -5.31183   -4.41277  -12.63111
      H1    -5.95779   -4.04192  -12.03034
       H   -10.20018  -11.34324  -16.92262
       O   -10.27035  -10.36995  -16.99270
      H1    -9.60308  -10.24273  -17.70882
       H    -6.55270   -9.46780  -13.20973
       O    -7.51009   -9.29297  -13.18693
      H1    -7.60922   -8.32669  -12.92252
       H    -2.30321   -9.75047  -10.23743
       O    -2.81857   -9.60226  -11.11039
      H1    -3.00743   -8.70381  -10.96775
       H    -3.58072   -8.80230  -14.24486
       O    -4.47972   -9.15398  -14.06823
      H1    -4.81124   -9.30075  -14.96879
       H   -11.21960  -11.72912  -12.57885
       O   -10.66718  -10.99198  -12.95127
      H1   -11.11918  -10.23913  -12.46532
       H    -9.61639  -13.01665  -15.56619
       O    -9.45282  -12.92684  -16.48500
      H1    -9.96961  -13.57627  -16.96105
       H    -5.21085  -11.75333   -9.78166
       O    -5.77573  -11.16619   -9.33657
      H1    -5.10578  -10.71013   -8.74230
       H    -4.49476  -13.20171  -11.67513
       O    -3.86520  -12.74954  -11.12392
      H1    -3.99425  -11.81787  -11.48512
       H   -11.97284  -10.45339  -14.06454
       O   -12.25395  -10.09349  -14.89570
      H1   -11.42715  -10.06715  -15.38843
       H    -8.00768  -10.48735  -11.53597
       O    -8.21076  -10.95624  -10.72658
      H1    -7.31623  -11.10733  -10.36594
       H    -9.57491   -7.43704  -18.97084
       O    -8.71393   -7.41078  -18.62330
      H1    -8.87186   -7.27157  -17.68844
       H    -6.25786  -10.42210  -16.94562
       O    -6.64795  -11.27837  -16.71376
      H1    -7.37719  -11.31929  -17.38234
       H    -8.03402   -9.44179   -9.87412
       O    -8.27785   -8.71352   -9.21214
      H1    -7.50860   -8.20823   -9.23454
       H   -10.09578  -12.88718  -11.48568
       O   -10.90924  -13.39162  -11.34662
      H1   -10.75370  -14.22708  -11.81635
       H    -7.96413   -9.28938  -18.63726
       O    -8.41822  -10.04779  -18.89301
      H1    -7.79392  -10.46643  -19.57146
       H    -4.61567   -7.53586  -13.02208
       O    -4.56319   -7.07849  -12.13846
      H1    -4.89850   -6.18514  -12.35135
       H    -4.39842   -9.10005  -16.91812
       O    -5.32791   -8.95454  -17.08559
      H1    -5.25237   -8.45403  -17.89922
       H    -7.66746   -6.80017  -15.48725
       O    -7.14528   -6.08294  -15.69768
      H1    -6.36632   -6.52057  -16.01661

