90
frame 3 | Written by MDAnalysis XYZWriter (release 2.4.3)
       H   -12.22653    4.38980  -11.10252
       O   -12.46008    3.64252  -11.66717
      H1   -13.33723    3.86987  -12.00470
       H   -10.25546    7.37487  -12.56000
       O    -9.93279    6.42703  -12.49082
      H1   -10.22507    6.14382  -13.35278
       H    -6.38337    2.27256  -17.91118
       O    -7.16373    2.11843  -17.31967
      H1    -7.69922    1.42861  -17.80380
       H   -15.14698   -0.71319  -17.13886
       O   -15.13718   -0.38521  -18.03138
      H1   -15.64013   -1.09912  -18.42282
       H   -11.90763   -2.18590  -16.94745
       O   -12.62920   -1.62936  -17.26981
      H1   -13.35360   -1.86933  -16.67325
       H   -18.28557    3.99077  -17.95492
       O   -18.98672    3.40238  -18.31829
      H1   -19.52596    3.09033  -17.54508
       H   -16.59320    5.81892  -14.04677
       O   -17.29980    6.27635  -14.48113
      H1   -18.09887    5.95303  -13.99146
       H   -14.39224    5.58823  -13.06859
       O   -14.95790    4.94207  -13.49624
      H1   -14.75526    5.03317  -14.44763
       H   -11.14821    7.45734  -15.96006
       O   -10.82074    8.19146  -15.41449
      H1   -10.95468    8.92918  -16.03637
       H   -17.75740    6.54705  -17.57342
       O   -17.72209    5.60572  -17.36436
      H1   -17.75805    5.58748  -16.38373
       H   -10.68764    9.28280  -18.09493
       O   -10.95328    9.86423  -17.33722
      H1   -10.30586   10.58789  -17.43649
       H   -11.25275    7.62398  -19.80735
       O   -10.73830    7.64695  -19.00341
      H1    -9.80779    7.43904  -19.28362
       H   -17.42498    1.24180  -15.05940
       O   -18.12453    1.03796  -14.39679
      H1   -17.63288    1.18177  -13.58279
       H   -12.94969    3.64428  -18.37487
       O   -13.29625    4.56903  -18.21655
      H1   -13.72099    4.41280  -17.41933
       H   -14.50973    3.27074  -16.04108
       O   -15.19249    3.94246  -16.16697
      H1   -15.90660    3.38796  -16.53689
       H   -12.35363    7.21609  -12.46903
       O   -12.93739    6.64279  -12.99130
      H1   -12.41767    6.63189  -13.82593
       H   -15.90213    9.18090  -18.74002
       O   -15.38154    8.98565  -19.53248
      H1   -15.29951    7.95131  -19.44158
       H   -11.96762    0.04634  -17.55045
       O   -11.56832    0.92843  -17.59791
      H1   -10.62181    0.75588  -17.66688
       H   -10.78363    5.04018  -15.94426
       O   -10.55600    5.04447  -14.99706
      H1   -10.77658    4.13760  -14.71281
       H    -9.49260    0.08568  -13.53935
       O   -10.21354    0.00029  -14.21115
      H1   -10.57279    0.90637  -14.37402
       H   -17.28923    2.19951  -17.61093
       O   -16.77053    1.80916  -16.91019
      H1   -16.23803    1.18127  -17.37278
       H    -8.12509    3.79195  -18.00393
       O    -8.54080    4.48920  -18.49104
      H1    -9.32457    4.71701  -17.95738
       H   -14.17491   -0.05241  -13.77255
       O   -15.01052    0.35945  -14.04176
      H1   -14.97781    1.20438  -13.49984
       H    -9.23606   -0.08336  -15.64137
       O    -8.80503   -0.20085  -16.48871
      H1    -8.01818   -0.73439  -16.17138
       H   -11.79965    4.90339  -17.70353
       O   -10.98166    5.40954  -17.60661
      H1   -11.10224    6.11051  -18.27844
       H   -17.95709    8.83043  -17.98254
       O   -17.36926    8.17137  -17.60558
      H1   -17.31944    8.42136  -16.63357
       H   -12.05914    2.18242  -14.69053
       O   -11.36480    2.53897  -14.15361
      H1   -11.84750    2.77100  -13.34125
       H   -12.97921    2.17971  -19.86587
       O   -12.14201    2.53602  -19.53465
      H1   -11.97914    1.73901  -18.91009
       H   -13.59161    1.11958  -15.66204
       O   -13.21714    2.00470  -15.92893
      H1   -12.57912    1.65462  -16.58050
       H   -16.03781    6.16444  -18.60508
       O   -15.58005    6.15947  -19.47677
      H1   -16.33520    6.23782  -20.10611

