90
frame 3 | Written by MDAnalysis XYZWriter (release 2.4.3)
       H     6.45687   -4.32128   -4.47177
       O     6.34349   -5.30126   -4.44302
      H1     5.47209   -5.40268   -4.89884
       H     7.88790    1.37242   -3.23024
       O     7.12937    1.96386   -3.07407
      H1     6.45893    1.36712   -3.48208
       H     5.20483   -0.70590   -5.90760
       O     5.43016   -0.29835   -6.71765
      H1     6.11390   -0.91377   -7.04313
       H     9.78944   -4.99221   -4.80739
       O     9.28682   -5.81054   -4.61614
      H1     8.39137   -5.42413   -4.51573
       H     9.06833   -2.58121  -11.50332
       O     9.27769   -2.55699  -10.52892
      H1     8.40193   -2.92486  -10.33028
       H     3.76907   -2.74368   -9.61745
       O     3.03744   -3.19048   -9.17560
      H1     2.96315   -2.72160   -8.31122
       H     8.45722   -5.18353   -6.83111
       O     8.48094   -4.57283   -7.55024
      H1     9.26432   -3.99759   -7.36330
       H     7.52523   -2.34287   -6.02158
       O     7.12371   -2.25174   -6.86524
      H1     7.14869   -3.19096   -7.18910
       H     3.66525   -4.26552   -4.59042
       O     3.95825   -4.33389   -5.52228
      H1     3.15477   -4.77305   -5.91642
       H     1.88958   -2.23220   -6.74632
       O     2.83929   -2.09082   -6.79809
      H1     3.20695   -2.93758   -6.43629
       H    10.34665   -0.79553  -10.14741
       O    10.46969    0.11193   -9.79804
      H1     9.73486    0.57304  -10.26054
       H     5.84393   -6.12073   -3.02526
       O     5.20371   -6.53700   -2.37167
      H1     5.68532   -6.36830   -1.54679
       H     5.15477   -0.80223   -3.76663
       O     5.14763    0.15946   -3.96638
      H1     4.13996    0.27582   -4.12150
       H     6.44313   -1.01655   -9.42767
       O     5.98645   -0.22855   -9.76795
      H1     5.27602   -0.59316  -10.31535
       H    10.78154    1.92783   -6.14152
       O     9.97729    1.60143   -5.73461
      H1     9.79066    0.80631   -6.32490
       H     8.98941   -4.26091   -1.28226
       O     8.51973   -3.44842   -1.55075
      H1     9.34502   -2.88373   -1.52062
       H    10.37884   -6.58315   -9.03564
       O     9.45388   -6.69005   -8.74050
      H1     9.21444   -5.80156   -8.44928
       H     5.74518    1.65883   -6.65747
       O     5.73901    2.65236   -6.73096
      H1     4.78428    2.82747   -6.66813
       H    10.06820   -1.31742   -3.17797
       O    10.59272   -1.91974   -2.58603
      H1    11.25116   -2.18284   -3.30015
       H     6.35718   -2.00173   -0.42153
       O     6.13080   -2.89631   -0.73147
      H1     7.04324   -3.30285   -0.89306
       H     8.56180   -1.41970   -4.33203
       O     8.22742   -2.31964   -4.37550
      H1     8.34226   -2.64576   -3.47630
       H    12.75598   -1.46679   -4.51750
       O    12.30028   -2.33927   -4.54805
      H1    12.05437   -2.36103   -5.48192
       H    11.21672   -2.97399   -7.48563
       O    10.32738   -2.78663   -7.08679
      H1    10.20329   -1.83033   -7.22967
       H     6.57929   -3.87743  -10.62712
       O     6.37029   -3.45137   -9.80919
      H1     5.98316   -4.23404   -9.30149
       H     1.43328   -1.61666   -4.17923
       O     2.26001   -1.11057   -4.34793
      H1     2.42842   -1.47575   -5.26665
       H     3.81681   -6.21513   -8.40559
       O     4.28914   -5.41355   -8.70442
      H1     3.59155   -4.72888   -8.73443
       H     4.35612    0.44661   -9.12470
       O     3.48563    0.19294   -8.72133
      H1     3.74683   -0.41082   -7.99454
       H     9.93376    0.26198   -2.73700
       O     9.28117    0.26584   -3.46080
      H1     9.80815    0.55291   -4.27124
       H     9.55870   -0.34305   -8.32223
       O     9.13690   -0.36692   -7.41259
      H1     8.69742   -1.23156   -7.48818
       H     7.55627   -8.15109   -7.22856
       O     7.50433   -7.37700   -6.62344
      H1     8.25424   -7.61333   -6.05827

