90
frame 7 | Written by MDAnalysis XYZWriter (release 2.4.3)
       H     4.85303   11.76079   18.74634
       O     4.28507   12.07917   18.01275
      H1     4.82345   11.95291   17.20469
       H     3.45637   10.53344   18.06865
       O     3.29092    9.56450   18.14967
      H1     4.18423    9.17831   18.18143
       H     4.72393   11.91938   14.86016
       O     5.48724   11.57801   15.37529
      H1     5.91539   10.84233   14.92572
       H     2.64223   15.48846   16.95594
       O     2.59501   15.95310   17.85625
      H1     3.23373   15.50078   18.40267
       H     3.32295   13.78906   14.50433
       O     3.51098   12.91348   14.24637
      H1     3.93733   13.00074   13.38460
       H     3.63172    6.32260   16.43891
       O     4.31529    6.82813   16.02010
      H1     3.94624    7.70723   15.92270
       H     0.48070    9.65869   19.52292
       O    -0.05913   10.41538   19.15908
      H1     0.16356   10.40911   18.22873
       H    -4.16600   13.31371   18.92322
       O    -3.57114   12.77972   18.35725
      H1    -3.27505   12.08782   18.92609
       H     0.36558   14.56039   19.54037
       O     0.21785   15.18894   18.79735
      H1     1.14738   15.42052   18.52555
       H    -4.05313    6.87799   19.06769
       O    -3.64567    5.99179   19.20663
      H1    -3.16265    5.73836   18.39228
       H    -1.95638    9.36090   12.48755
       O    -2.87631    9.08143   12.65649
      H1    -2.80311    8.90517   13.60153
       H     2.43841    9.48425   15.20081
       O     2.28646    8.76431   15.81614
      H1     2.60667    9.06740   16.66836
       H    -0.99535   14.12441   17.50948
       O    -1.32571   13.54435   16.78397
      H1    -2.25707   13.23640   17.05358
       H    -0.45774   13.96313   15.19812
       O    -0.37877   14.12613   14.26309
      H1    -0.64162   13.29314   13.84384
       H    -0.91576   18.40888   18.22524
       O    -1.28144   17.52533   18.62262
      H1    -0.49930   17.00464   18.85462
       H    -0.91036    6.67060   18.20360
       O    -1.34965    7.07235   17.42262
      H1    -0.99585    7.98163   17.43320
       H    -1.76516    4.43390   14.89272
       O    -2.28309    5.04388   15.39965
      H1    -1.68031    5.77366   15.64311
       H     0.94403    6.13870   15.66499
       O     0.75700    6.68008   14.88409
      H1     1.45268    7.35198   15.00045
       H     0.30230   11.29058   13.22595
       O    -0.58437   11.35774   12.92288
      H1    -0.63570   11.92091   12.15175
       H     2.47138    5.98761   18.15547
       O     2.28004    5.63992   17.24683
      H1     2.71970    4.71880   17.29101
       H    -3.28252   10.51262   15.24792
       O    -3.08852    9.53367   15.31494
      H1    -2.20141    9.47583   15.69029
       H    -1.89756   10.17243   19.31820
       O    -2.77223   10.49775   19.56558
      H1    -3.31758    9.74081   19.41959
       H    -3.82964   12.86913   14.97858
       O    -4.25106   12.01655   15.01632
      H1    -4.98885   12.05711   15.67624
       H     0.29926   10.56087   15.41308
       O    -0.33530   10.47517   16.12824
      H1    -0.55257   11.39482   16.47897
       H     6.67581    8.75518   18.26476
       O     6.09867    9.26669   17.68742
      H1     6.57149   10.11325   17.62393
       H    -1.97654   14.74905   14.78576
       O    -2.89115   14.92059   14.94424
      H1    -3.12245   15.57201   14.30954
       H     2.11425   10.39516   13.10034
       O     1.90585   10.73857   13.98329
      H1     2.56786   11.46859   14.06423
       H    -5.95703   12.19269   17.32670
       O    -6.27877   11.62492   16.61153
      H1    -6.79872   12.28714   16.12708
       H    -5.86700    9.29207   16.32341
       O    -5.44634    8.47241   16.16025
      H1    -4.55898    8.76640   15.84622
       H    -5.06992    8.71536   17.98235
       O    -4.62735    8.37110   18.75569
      H1    -5.21489    8.65032   19.52326

