90
frame 3 | Written by MDAnalysis XYZWriter (release 2.4.3)
       H    14.54708  -19.01731   -2.91751
       O    14.00343  -18.83924   -3.76226
      H1    14.04996  -19.73998   -4.10603
       H    14.10910  -19.06861    2.55855
       O    14.65905  -18.35249    2.29405
      H1    14.08730  -17.55513    2.26701
       H    11.43424  -12.02085   -3.96500
       O    10.95027  -12.59969   -4.52294
      H1    10.58327  -12.01477   -5.20944
       H    16.07003  -16.61621   -1.55024
       O    16.63099  -15.92117   -1.92387
      H1    17.57906  -16.24502   -1.69014
       H    12.02168  -13.53658   -2.57948
       O    11.83906  -14.45199   -2.33310
      H1    12.00296  -14.88660   -3.21598
       H    11.92919  -13.70249    1.22455
       O    12.86274  -13.53613    1.47708
      H1    12.72607  -12.85740    2.14892
       H    11.24195  -17.20113   -3.97379
       O    12.06116  -16.91995   -3.48451
      H1    12.71311  -17.64441   -3.70817
       H     9.20555  -15.01895   -4.61415
       O    10.04476  -15.09636   -5.06032
      H1    10.41271  -14.18599   -4.85996
       H     8.12739  -14.91233   -7.33252
       O     9.05553  -15.23568   -7.52251
      H1     9.45377  -15.30718   -6.60031
       H    10.72043  -17.18742    0.25762
       O    10.22402  -16.82426    1.06961
      H1    10.07543  -15.88983    0.83208
       H    16.56659  -15.81652    0.46447
       O    16.96298  -16.30427    1.19100
      H1    16.40285  -17.04437    1.37615
       H     6.74688  -16.04097   -3.28271
       O     7.09915  -15.52611   -4.06685
      H1     6.46955  -15.89538   -4.70917
       H     8.53448  -17.97011    0.62222
       O     7.95573  -18.61109    1.10550
      H1     7.36194  -18.87738    0.34413
       H    15.96054  -14.36309   -2.56302
       O    15.24075  -13.68681   -2.58143
      H1    15.76958  -12.92815   -2.91373
       H    13.47715  -14.77983    2.51928
       O    13.73437  -15.66007    2.92877
      H1    12.85706  -16.03863    3.17737
       H     5.69914  -17.83365   -1.79022
       O     5.51632  -16.96248   -2.20185
      H1     4.87534  -16.53801   -1.58355
       H    13.71338  -12.37988   -3.02431
       O    12.94262  -11.81151   -2.79501
      H1    13.06202  -11.62082   -1.82049
       H     8.69555  -18.31348   -3.02820
       O     8.78223  -18.91954   -2.29129
      H1     9.43410  -19.55854   -2.70735
       H     8.59703  -20.11808   -6.73858
       O     8.03794  -19.37575   -6.35943
      H1     7.65594  -18.96598   -7.14617
       H    11.36013  -19.74712    3.56677
       O    12.10655  -19.13610    3.75476
      H1    12.62114  -19.65836    4.38935
       H    15.29965  -18.47946   -0.48428
       O    14.77560  -18.16778   -1.27815
      H1    14.07544  -17.79483   -0.75812
       H    10.06358  -14.18731   -2.10009
       O     9.23875  -13.99120   -1.68403
      H1     8.65115  -14.68998   -1.90733
       H    10.31940  -19.74617   -4.89309
       O    10.09839  -18.79792   -4.82217
      H1     9.38694  -18.83456   -5.49386
       H    14.67157  -15.38303   -5.24251
       O    14.87865  -14.45629   -5.47655
      H1    15.16458  -14.08249   -4.62178
       H    10.74743  -16.78408    2.73512
       O    11.10535  -16.78904    3.65205
      H1    11.47392  -17.69527    3.66088
       H     9.44987  -10.85619   -1.26321
       O    10.02343  -11.53284   -1.60618
      H1     9.40857  -12.27468   -1.84018
       H     9.41366  -13.61907    1.63738
       O    10.07010  -13.99730    0.99045
      H1     9.57598  -13.90985    0.13347
       H    13.24364  -15.04825    0.31434
       O    13.84735  -15.42209   -0.32694
      H1    13.34784  -15.27579   -1.17647
       H    16.08235  -16.60893   -4.14780
       O    15.63307  -17.08128   -4.87066
      H1    14.96445  -17.65804   -4.51955
       H    10.38430  -18.41290   -1.43361
       O    11.27137  -18.20234   -1.11996
      H1    11.64180  -17.80816   -1.91777

