90
frame 0 | Written by MDAnalysis XYZWriter (release 2.4.3)
       H     4.54460  -18.91574  -13.28014
       O     5.05314  -19.01167  -14.05835
      H1     5.28464  -19.93794  -14.14770
       H     6.49076  -16.40067  -11.07166
       O     5.57272  -16.58302  -10.99427
      H1     5.12184  -16.21801  -11.76932
       H     9.23847  -16.04309  -17.63949
       O    10.00537  -15.47277  -17.53874
      H1     9.68565  -14.62146  -17.89993
       H    14.04359  -17.57453  -16.18017
       O    13.20759  -17.17373  -15.97390
      H1    12.78264  -17.66464  -15.20281
       H    10.82119  -16.67791  -14.31199
       O    10.99496  -17.49335  -13.92513
      H1    10.93709  -17.31098  -12.95972
       H     8.26187  -17.03461   -9.03375
       O     8.86937  -16.35846   -9.33942
      H1     8.63078  -15.95752  -10.19720
       H    14.37968  -15.90484  -15.10436
       O    15.03628  -15.38293  -14.61930
      H1    15.57895  -16.09137  -14.14820
       H    12.15145  -12.85995   -8.98030
       O    11.36954  -13.04559   -8.44753
      H1    11.24680  -14.00128   -8.40814
       H    13.49716  -13.02051  -10.92404
       O    13.28041  -12.21569  -10.43901
      H1    14.13395  -11.71955  -10.40793
       H     6.55876  -14.18608   -8.99247
       O     7.26456  -14.50269   -8.38229
      H1     7.74572  -15.15776   -8.86177
       H    13.06298  -19.31008   -8.90128
       O    13.82885  -19.44828   -9.49657
      H1    13.96303  -18.52149   -9.86887
       H    14.05289  -14.37232  -12.56731
       O    13.87622  -14.55376  -11.61490
      H1    14.71714  -14.39422  -11.16986
       H    10.79575  -19.70563   -8.29784
       O    11.61491  -19.26707   -7.94067
      H1    11.36778  -18.40881   -8.25131
       H    11.57216  -18.01457   -5.77672
       O    12.10484  -17.80435   -5.05461
      H1    12.85748  -17.30142   -5.51909
       H    13.02004  -19.59592  -11.36478
       O    12.24928  -19.58884  -11.96439
      H1    12.71015  -19.55667  -12.81347
       H    13.41272  -15.33118   -6.24156
       O    14.16347  -15.88573   -6.49196
      H1    14.18966  -15.86674   -7.44381
       H    11.55611  -16.01643  -18.21621
       O    12.31610  -16.42565  -18.67882
      H1    12.68196  -16.99828  -17.98697
       H     6.88861  -18.77618  -14.58380
       O     7.67742  -18.76996  -15.21281
      H1     7.39759  -18.14202  -15.94231
       H    11.85471  -16.05594   -9.76566
       O    11.42028  -16.10707   -8.91964
      H1    10.45366  -16.22642   -9.13751
       H     6.81541  -18.97583   -9.20417
       O     7.02686  -18.19117   -8.62308
      H1     6.46468  -18.22623   -7.83799
       H    16.29887  -15.29322   -9.33603
       O    15.48876  -14.79247   -9.23175
      H1    15.67628  -14.12463   -8.53115
       H     9.94423  -14.03966  -14.36540
       O    10.15090  -14.87825  -14.72269
      H1    10.12985  -14.73225  -15.72614
       H    12.10209  -15.36974  -11.95885
       O    11.18516  -15.56529  -11.68096
      H1    10.66383  -15.43692  -12.47369
       H     9.39436  -13.95931  -12.08673
       O     9.23102  -13.01973  -12.30052
      H1    10.05318  -12.55873  -12.10796
       H     8.79715  -18.60097  -13.09534
       O     8.29402  -18.39941  -12.28232
      H1     7.65743  -19.11907  -12.14710
       H    16.13353  -18.34512  -12.36648
       O    15.33419  -18.01806  -12.84403
      H1    15.40105  -18.49839  -13.67054
       H    16.59076  -17.31181  -17.47774
       O    15.64900  -17.10539  -17.34845
      H1    15.30204  -17.82093  -17.89296
       H     7.70913  -15.28788  -12.73652
       O     8.22580  -15.50930  -11.98510
      H1     8.55529  -16.39669  -12.18059
       H    18.22412  -18.53589  -10.91188
       O    17.47689  -19.02096  -11.28162
      H1    17.02162  -19.34199  -10.49490
       H    14.42892  -16.17651  -10.11540
       O    13.98888  -16.98762  -10.44071
      H1    14.09951  -17.01438  -11.35052

