90
frame 3 | Written by MDAnalysis XYZWriter (release 2.4.3)
       H     5.79162  -13.77736   -3.82835
       O     4.89447  -13.78736   -3.45887
      H1     4.62960  -12.93427   -3.97411
       H    -3.68626  -15.68336   -5.73254
       O    -3.87732  -15.83369   -4.78875
      H1    -2.97019  -15.85784   -4.46604
       H     0.99389  -12.59197   -4.59885
       O     1.52791  -12.88904   -3.82411
      H1     1.01862  -13.58902   -3.39740
       H    -1.19525  -14.92446   -9.78693
       O    -1.41359  -13.98183   -9.82523
      H1    -2.27058  -13.93129  -10.25016
       H     1.90590  -16.25316   -9.56478
       O     1.75328  -16.72775   -8.79959
      H1     1.77190  -16.02481   -8.12922
       H    -1.52374  -10.66027   -8.03662
       O    -1.52839  -10.98444   -8.92257
      H1    -1.50555  -11.94935   -8.89643
       H    -2.12750  -13.43621   -1.40520
       O    -2.61500  -13.78951   -2.17088
      H1    -2.84176  -12.94071   -2.61512
       H    -1.39914  -16.53207   -3.03379
       O    -1.33608  -15.93970   -3.75374
      H1    -1.61122  -15.07730   -3.38312
       H     3.76036  -12.93531   -9.14495
       O     4.13587  -12.94664   -8.29804
      H1     4.88841  -13.50639   -8.38867
       H     3.34426   -8.12785   -6.85903
       O     3.07111   -8.19137   -7.76890
      H1     3.65880   -8.94885   -8.04437
       H     2.94913  -14.08598   -7.69684
       O     2.36849  -14.62825   -7.09516
      H1     1.68007  -14.01348   -6.82254
       H    -0.93627  -12.63271   -6.47791
       O    -0.23864  -12.38921   -5.85580
      H1    -0.54419  -11.43131   -5.80367
       H    -2.30321   -9.75047  -10.23743
       O    -2.81857   -9.60226  -11.11039
      H1    -3.00743   -8.70381  -10.96775
       H     1.24419   -7.75850   -3.00839
       O     2.05391   -7.49503   -3.40851
      H1     2.69381   -8.13996   -3.13285
       H    -0.08634   -6.07487   -3.95853
       O    -0.38510   -6.40497   -4.82351
      H1    -1.04841   -7.06813   -4.56679
       H    -1.38700  -12.99321    0.48614
       O    -1.05740  -12.69795   -0.37028
      H1    -0.40661  -13.39417   -0.64589
       H    -0.28559   -9.24358   -6.37226
       O    -0.42057   -9.61373   -5.49174
      H1     0.45370   -9.45863   -5.11104
       H    -4.35218   -8.59754   -6.66309
       O    -5.05635   -9.16418   -7.00228
      H1    -5.22672   -8.76671   -7.85047
       H     1.45587   -8.72062   -8.17912
       O     0.52478   -8.99658   -8.06264
      H1     0.45233   -9.77487   -8.60249
       H    -3.33220  -12.72673   -6.54228
       O    -2.79870  -13.20387   -7.23587
      H1    -3.46765  -13.83456   -7.64766
       H     3.84970  -12.55109   -5.78799
       O     3.94969  -11.66740   -5.36162
      H1     3.08447  -11.47175   -4.94500
       H     3.55257  -14.78093   -3.94824
       O     2.99271  -15.47376   -4.35814
      H1     2.54611  -14.92415   -5.01662
       H    -5.21344  -12.19520   -5.34834
       O    -4.53647  -11.70993   -5.85568
      H1    -5.12228  -11.02838   -6.22466
       H     1.41443  -13.70702   -0.60744
       O     1.09811  -14.29649   -1.28257
      H1     0.61654  -14.97307   -0.71519
       H    -3.86210   -9.79922   -3.28815
       O    -3.99247   -9.48526   -4.18809
      H1    -4.07752  -10.34311   -4.62270
       H     0.69808  -12.65685  -12.31052
       O     0.63784  -13.56524  -11.95154
      H1    -0.13804  -13.53729  -11.34148
       H    -0.59174  -15.47271   -6.23191
       O    -0.76359  -15.38372   -7.19673
      H1    -1.35374  -14.61427   -7.24494
       H     3.90472  -10.62264  -10.01073
       O     3.19826  -10.59421   -9.36554
      H1     3.52888  -11.11374   -8.64901
       H    -3.96969  -15.73284   -8.46189
       O    -4.54089  -14.95963   -8.26720
      H1    -4.65901  -14.55451   -9.16950
       H     3.47866  -12.19116   -1.98875
       O     3.02021  -11.36755   -1.70504
      H1     2.11661  -11.60701   -2.01042

