90
frame 3 | Written by MDAnalysis XYZWriter (release 2.4.3)
       H    18.83868   -9.64766   16.85752
       O    19.67873  -10.02723   17.30020
      H1    20.18607  -10.43551   16.64738
       H    16.94215  -14.41597    7.75495
       O    16.81995  -13.57872    7.28280
      H1    16.81876  -13.85562    6.35135
       H    19.14369  -14.44574   11.48881
       O    19.45972  -13.66186   11.02396
      H1    19.44787  -12.96754   11.73948
       H    16.16911  -18.25955   13.78587
       O    15.34651  -18.55869   14.23188
      H1    14.71140  -18.01332   13.74841
       H    18.54203   -8.91333   11.59349
       O    19.50238   -9.06635   11.80838
      H1    19.99815   -8.41862   11.29116
       H    15.14260  -13.84516   13.14474
       O    15.55599  -14.45232   12.53698
      H1    15.95807  -13.82363   11.91299
       H    17.63133  -13.34491   17.51198
       O    17.20084  -13.19073   18.37629
      H1    17.86924  -12.52291   18.67344
       H    14.12602  -11.69824   13.09081
       O    14.89601  -11.96746   13.51818
      H1    14.45097  -12.34467   14.33965
       H    12.28676  -12.03081    8.82946
       O    12.95064  -12.61379    8.41188
      H1    13.54037  -11.93468    7.93418
       H    17.32669  -19.55347   10.09173
       O    17.90501  -19.24940    9.38984
      H1    17.58690  -18.30601    9.39227
       H    18.49402   -6.81269   13.57184
       O    17.59368   -7.11052   13.72460
      H1    17.39320   -7.57572   12.91986
       H    18.31397   -9.65171    8.55543
       O    17.57279   -9.93283    8.03035
      H1    17.37506   -9.05712    7.62589
       H    19.17170  -11.41780    9.91990
       O    19.74672  -10.68274    9.64612
      H1    19.81017  -10.16107   10.51830
       H    18.00591  -16.23205    8.87526
       O    17.42142  -16.62935    9.53220
      H1    16.51811  -16.41996    9.24641
       H    13.20052  -13.68255   10.24292
       O    13.26100  -14.61875   10.56265
      H1    13.76933  -14.51923   11.36873
       H    16.40597  -18.70202   11.82961
       O    16.29932  -19.66603   11.69509
      H1    15.52771  -19.71353   11.08668
       H    16.53984  -15.11163   13.98525
       O    16.99070  -15.47798   14.73025
      H1    17.25520  -14.56181   15.05086
       H    16.25187  -10.55063   13.82373
       O    17.12686  -10.35491   14.08628
      H1    17.56921  -10.71568   13.31948
       H    14.60430  -15.29107    7.86053
       O    14.90102  -15.70304    8.67735
      H1    14.24106  -15.23034    9.25495
       H    19.03741  -16.92790   12.02423
       O    19.49727  -16.55896   11.30658
      H1    18.92039  -16.67357   10.57348
       H    18.12458   -5.50156   10.05013
       O    18.33786   -6.36005   10.40944
      H1    19.02161   -6.75153    9.88687
       H    16.43536  -10.17960   11.13086
       O    16.89893   -9.31989   11.24357
      H1    16.44304   -8.66375   10.71427
       H    18.52553  -12.82755   15.11837
       O    17.59275  -12.99215   15.39737
      H1    17.20323  -12.10798   15.22870
       H    14.07253  -11.10544   10.78188
       O    13.37144  -11.44785   11.42148
      H1    12.75538  -10.73583   11.60803
       H    16.76490  -12.38581    9.73573
       O    16.79806  -12.44313   10.71256
      H1    17.52244  -13.06378   10.88181
       H    17.88837  -11.25998    6.42678
       O    17.92532  -11.06857    5.45291
      H1    17.51146  -11.88855    5.10240
       H    17.58993  -16.79113   13.87727
       O    17.66288  -17.53182   13.20488
      H1    18.15940  -18.21595   13.70372
       H    18.32041  -16.84298    3.84122
       O    18.47994  -16.06928    4.44496
      H1    18.74284  -16.39034    5.29951
       H    17.19435  -14.64180    4.64277
       O    16.55421  -13.95173    4.57344
      H1    15.77817  -14.38933    4.93178
       H    15.31745  -10.73939    7.52899
       O    14.41991  -10.52878    7.67220
      H1    14.01758  -10.23288    6.82560

