90
frame 7 | Written by MDAnalysis XYZWriter (release 2.4.3)
       H    15.20912    1.97826  -18.19318
       O    15.87657    2.44755  -18.70863
      H1    15.98391    1.96805  -19.56025
       H    13.74893   -1.19501  -15.93270
       O    14.00668   -0.30693  -15.74248
      H1    15.01332   -0.43831  -15.69321
       H    13.36085    2.21963  -17.81284
       O    13.73954    1.96267  -16.96203
      H1    13.57873    0.99973  -16.84238
       H    12.92426    3.83844  -13.58776
       O    12.65663    4.02594  -12.68589
      H1    11.73455    4.03894  -12.77390
       H    10.79742   -0.73026  -17.64571
       O    11.47523   -0.29063  -17.13135
      H1    11.09349   -0.56543  -16.30231
       H    15.45974   -5.43210  -13.81887
       O    14.74581   -5.51662  -14.53773
      H1    13.86556   -5.79085  -14.07926
       H    12.27693   -5.09331  -17.20153
       O    11.80774   -4.41374  -16.70551
      H1    12.51624   -4.05638  -16.12416
       H    17.53811   -0.76410  -14.35988
       O    16.78486   -0.16372  -14.56805
      H1    17.14652    0.34356  -15.30135
       H    10.61041    1.33232  -16.65768
       O    10.10852    2.09014  -16.40294
      H1     9.64572    1.75096  -15.63490
       H    13.02590   -1.85251  -18.23181
       O    12.75660   -1.71535  -19.15700
      H1    11.80750   -1.75886  -19.11994
       H    14.39500   -3.35595  -15.45494
       O    13.99869   -3.07375  -16.26435
      H1    14.67337   -3.49932  -16.86126
       H    11.65539   -1.99589  -11.78712
       O    11.77408   -2.94316  -12.07136
      H1    12.71056   -2.97136  -12.17253
       H    17.88095   -1.76561  -12.28388
       O    18.01482   -2.40042  -13.03419
      H1    18.99361   -2.54334  -13.08012
       H    14.16684   -2.38136  -10.94310
       O    13.88065   -2.62215  -10.04112
      H1    13.86980   -3.52877   -9.97109
       H    16.66233   -5.04932  -17.59706
       O    16.05433   -4.30002  -17.73351
      H1    16.53619   -3.51189  -17.56278
       H    15.20345    4.16659  -18.42471
       O    15.25319    5.07814  -18.46712
      H1    15.64829    5.35554  -19.34411
       H    19.06191   -2.33513  -15.80862
       O    18.53522   -2.84216  -16.46730
      H1    18.32857   -2.14897  -17.13624
       H    15.85231    2.81239  -13.56576
       O    16.00831    2.06794  -13.01845
      H1    16.23211    1.39425  -13.62039
       H    13.89733    0.52066  -14.20336
       O    13.65770    0.79797  -13.28083
      H1    14.52647    1.16558  -12.96332
       H    17.66224   -0.06806  -18.41029
       O    17.74147   -1.02915  -18.60334
      H1    17.38400   -1.10418  -19.50524
       H    13.02628    3.24712  -15.76682
       O    12.28610    3.81763  -15.51776
      H1    11.53562    3.35737  -15.77507
       H    12.85760    1.00873  -20.18205
       O    12.20905    1.31423  -19.56093
      H1    12.24080    0.64421  -18.88157
       H    10.69654   -1.57489  -13.79026
       O    10.39106   -1.31203  -14.65908
      H1    10.10810   -2.20215  -15.02569
       H    18.37551   -4.11676  -14.06872
       O    18.91193   -4.83523  -14.47806
      H1    18.54419   -5.64671  -14.12599
       H    17.63606    0.04359  -10.47345
       O    18.15431   -0.68958  -10.94929
      H1    18.66407   -1.05007  -10.23590
       H    15.42826   -2.09711  -12.84587
       O    14.49341   -2.00272  -12.60813
      H1    14.20211   -1.09893  -12.76469
       H    15.92539    5.35842  -14.58796
       O    15.38539    4.59637  -14.33550
      H1    14.68577    4.84927  -13.77669
       H    11.39472    0.61863  -12.18555
       O    11.04971   -0.08461  -11.58709
      H1    10.40342    0.42229  -11.08320
       H    18.78626    1.25472  -17.29892
       O    17.83671    1.35230  -17.10201
      H1    17.47634    2.04325  -17.68515
       H    17.75093    2.17112  -12.28796
       O    18.46769    2.69238  -11.92040
      H1    19.26210    2.50833  -12.39562

