90
frame 3 | Written by MDAnalysis XYZWriter (release 2.4.3)
       H    -2.00683  -10.22742  -14.19330
       O    -1.66457   -9.49282  -13.63633
      H1    -2.21142   -9.65104  -12.83944
       H    -2.24748   -3.30821  -13.22998
       O    -2.36070   -2.70965  -14.01316
      H1    -2.02549   -1.85333  -13.73635
       H     0.27896   -2.16963  -12.70548
       O    -0.02308   -2.46888  -11.83118
      H1     0.53678   -3.14808  -11.47407
       H     2.81397   -7.93311  -18.85115
       O     3.61509   -8.27376  -18.46806
      H1     4.22580   -7.98854  -19.14667
       H     2.05280   -4.38728  -10.70121
       O     1.40707   -4.92735  -11.12296
      H1     1.27005   -5.66017  -10.49909
       H    -1.66243   -7.86341  -13.64386
       O    -1.31187   -6.92726  -13.45569
      H1    -0.43813   -7.11152  -13.01943
       H     3.68199   -5.99330  -16.10990
       O     4.30408   -6.71632  -16.19902
      H1     3.90944   -7.28257  -16.84608
       H     2.22317   -9.72288  -10.67060
       O     1.42556   -9.56852  -11.15523
      H1     1.56818   -8.69799  -11.50664
       H     2.01033   -6.53322  -12.37398
       O     1.85455   -7.42198  -12.74587
      H1     2.71091   -7.54253  -13.19480
       H     2.53148    0.44502  -16.14500
       O     3.49065    0.36227  -15.77474
      H1     3.45475    0.47405  -14.77508
       H    -1.20037   -2.89468  -17.15670
       O    -1.35701   -3.57356  -16.54531
      H1    -1.61739   -3.03164  -15.76332
       H    -0.98942   -0.80326  -18.64397
       O    -0.96286   -0.40740  -17.80685
      H1    -1.87287   -0.62415  -17.50971
       H    -1.04060   -4.27744  -12.00611
       O    -1.96345   -4.60182  -11.90676
      H1    -1.89721   -5.41356  -12.38733
       H     0.80114   -6.62816  -15.63948
       O     0.50237   -7.53405  -15.62108
      H1    -0.07095   -7.53266  -14.84231
       H    -2.78157   -4.34717  -17.51159
       O    -3.26033   -4.56010  -18.35847
      H1    -4.17853   -4.37052  -18.06413
       H     1.20708   -6.59401  -18.38245
       O     1.97176   -6.06811  -18.15550
      H1     1.93514   -5.32694  -18.74878
       H    -1.54797   -9.14226  -17.07087
       O    -1.89286   -8.22806  -16.85110
      H1    -1.08920   -7.85757  -16.42092
       H     3.85945   -3.32119  -13.41331
       O     4.53582   -3.32384  -14.05951
      H1     4.03913   -3.13351  -14.84992
       H     6.07956   -0.34071  -19.36803
       O     5.55147   -1.18637  -19.12851
      H1     6.18955   -1.77326  -19.54499
       H     6.34241   -3.89549  -14.02835
       O     7.21898   -4.21526  -14.04806
      H1     7.76214   -3.45210  -13.79442
       H     6.48753   -7.04272  -18.66687
       O     6.70766   -6.82019  -17.72691
      H1     5.88549   -6.80636  -17.26673
       H     1.58235   -8.94140  -15.22074
       O     2.18790   -9.60434  -14.83408
      H1     1.54679  -10.04974  -14.22325
       H    -2.17896   -7.81396  -18.63091
       O    -2.06657   -8.00389  -19.59344
      H1    -1.10349   -8.05652  -19.63109
       H     4.69665   -7.74799  -14.55262
       O     4.52461   -8.18175  -13.68690
      H1     3.76307   -8.75695  -13.89893
       H     3.90261   -1.27691  -16.29135
       O     3.89032   -2.26886  -16.38747
      H1     4.40292   -2.27369  -17.25287
       H     2.44026  -11.61971  -19.24073
       O     2.35613  -10.65584  -19.43540
      H1     2.78498  -10.22257  -18.63498
       H    -0.00568    1.17096  -15.94126
       O     0.49738    0.36424  -15.85672
      H1     0.16119   -0.24140  -16.53374
       H     1.29295   -5.12801  -16.78665
       O     1.17262   -4.80771  -15.86632
      H1     0.26310   -4.38501  -15.93614
       H     4.06750  -11.72883  -17.01170
       O     4.58160  -10.93554  -16.97804
      H1     3.90728  -10.42490  -16.52658
       H     1.67705   -2.33256  -14.75260
       O     1.57311   -1.65318  -14.07547
      H1     1.21590   -0.88393  -14.64423

