90
frame 7 | Written by MDAnalysis XYZWriter (release 2.4.3)
       H   -10.30045  -16.90311   -4.16354
       O    -9.34882  -16.91675   -4.21085
      H1    -9.20993  -16.99778   -3.26493
       H   -14.61384  -14.25401   -0.72281
       O   -15.26167  -13.66188   -1.10049
      H1   -16.13325  -14.06347   -1.01871
       H   -10.45416  -18.85998    5.85293
       O    -9.64328  -18.73012    5.35162
      H1    -9.19392  -19.56042    5.16250
       H   -10.13365  -17.47582    1.98669
       O    -9.28803  -17.77302    2.25292
      H1    -9.50113  -18.28077    3.05232
       H   -10.49663  -14.48147    4.29080
       O   -10.34218  -13.56769    4.09371
      H1    -9.95094  -13.52059    3.21660
       H    -9.77936  -13.45659   -1.14790
       O    -9.43001  -12.55363   -1.06974
      H1   -10.14525  -11.93939   -1.17616
       H   -15.47466  -18.72179    0.15611
       O   -15.13902  -17.77466    0.25682
      H1   -14.85895  -17.88704    1.12453
       H   -15.35907  -17.97973    3.22245
       O   -14.38706  -17.94438    3.13550
      H1   -14.05080  -18.76761    3.53402
       H   -11.82853  -19.25892    7.25497
       O   -12.08636  -18.60509    6.59198
      H1   -12.60446  -19.12020    5.94181
       H   -12.67571  -11.82948    4.23014
       O   -12.71790  -12.00405    3.27970
      H1   -11.88324  -12.54451    3.13351
       H   -13.24243  -14.39945    1.38778
       O   -12.80616  -13.70844    0.75170
      H1   -13.08527  -12.89875    1.20375
       H   -12.11901  -16.57590    1.91629
       O   -11.59804  -16.95612    1.22996
      H1   -11.27906  -16.24483    0.60634
       H    -9.45758  -16.86710    5.10950
       O    -9.71816  -16.02364    5.43451
      H1   -10.34826  -16.11884    6.19165
       H    -7.54940  -17.33953    2.60710
       O    -6.74828  -17.06848    2.98441
      H1    -6.53158  -16.30548    2.45238
       H    -8.68813  -15.18866   -4.51800
       O    -8.63350  -14.29711   -4.94181
      H1    -9.26245  -13.76687   -4.37849
       H    -6.29713  -17.34703   -4.06898
       O    -6.23290  -17.07470   -3.07171
      H1    -6.25788  -16.13531   -2.99348
       H   -17.48192  -15.89637   -1.13678
       O   -17.56325  -16.79661   -0.75134
      H1   -16.72064  -17.08511   -0.37315
       H   -15.20292  -11.88774   -4.18931
       O   -14.44825  -12.45397   -4.01326
      H1   -14.63068  -12.82092   -3.15335
       H    -7.47438  -15.63538    0.27885
       O    -6.89227  -15.17122    0.91910
      H1    -7.33924  -14.42770    1.36700
       H    -8.38668  -12.12400    2.30129
       O    -8.53430  -12.91458    1.74410
      H1    -8.80613  -12.58167    0.87862
       H   -17.92702  -18.26822   -2.01769
       O   -18.12549  -19.10220   -2.51877
      H1   -17.31083  -19.62882   -2.40896
       H   -11.24990  -14.93827   -1.52803
       O   -10.89701  -15.07584   -0.64915
      H1   -11.43422  -14.40902   -0.17857
       H   -10.71054  -18.32077   -7.26924
       O   -10.65025  -17.47296   -6.84009
      H1   -10.09746  -17.56242   -6.09116
       H   -13.59130  -18.92322   -5.19184
       O   -13.02469  -18.19956   -5.32982
      H1   -13.46339  -17.52039   -5.82506
       H    -8.62114  -17.70765   -1.19665
       O    -8.42836  -16.79223   -1.37144
      H1    -7.56602  -16.79684   -1.86215
       H   -12.28278  -17.22315   -2.52215
       O   -12.07949  -16.69206   -3.28999
      H1   -12.41486  -17.20074   -4.03298
       H   -13.58248  -16.24356    3.12142
       O   -13.07488  -15.43752    3.33561
      H1   -13.53298  -15.03193    4.08919
       H   -14.68330  -14.59240   -4.34421
       O   -14.87171  -15.37336   -3.86890
      H1   -14.03349  -15.63348   -3.48371
       H   -12.17058  -13.49230   -4.33935
       O   -11.73265  -13.87108   -3.56446
      H1   -11.89297  -14.82003   -3.75083
       H   -11.95218  -17.85895   -0.27387
       O   -12.53753  -18.26198   -0.90604
      H1   -13.35259  -18.05992   -0.49728

