90
frame 3 | Written by MDAnalysis XYZWriter (release 2.4.3)
       H    -2.00683  -10.22742  -14.19330
       O    -1.66457   -9.49282  -13.63633
      H1    -2.21142   -9.65104  -12.83944
       H    -2.28596  -11.50426  -15.90607
       O    -2.78436  -11.53734  -15.06426
      H1    -2.26716  -12.30688  -14.66326
       H    -2.24833  -11.48462  -18.37027
       O    -1.67627  -11.27353  -17.60613
      H1    -1.11086  -12.02809  -17.59712
       H     2.43277  -12.97104  -11.95387
       O     3.41410  -12.90887  -11.94585
      H1     3.64977  -13.22378  -12.83309
       H     2.09566  -13.35708  -18.23115
       O     3.05087  -13.07932  -18.06754
      H1     3.48884  -13.95122  -17.89716
       H     0.09810  -13.87064  -16.54824
       O     0.09680  -13.68151  -15.61040
      H1    -0.32152  -14.51956  -15.24877
       H     2.81397   -7.93311  -18.85115
       O     3.61509   -8.27376  -18.46806
      H1     4.22580   -7.98854  -19.14667
       H    -1.66243   -7.86341  -13.64386
       O    -1.31187   -6.92726  -13.45569
      H1    -0.43813   -7.11152  -13.01943
       H     3.68199   -5.99330  -16.10990
       O     4.30408   -6.71632  -16.19902
      H1     3.90944   -7.28257  -16.84608
       H     2.22317   -9.72288  -10.67060
       O     1.42556   -9.56852  -11.15523
      H1     1.56818   -8.69799  -11.50664
       H     2.01033   -6.53322  -12.37398
       O     1.85455   -7.42198  -12.74587
      H1     2.71091   -7.54253  -13.19480
       H    -2.12696  -14.37713  -13.03249
       O    -1.84382  -13.55531  -13.40568
      H1    -0.85863  -13.57934  -13.32342
       H     0.80114   -6.62816  -15.63948
       O     0.50237   -7.53405  -15.62108
      H1    -0.07095   -7.53266  -14.84231
       H     1.20708   -6.59401  -18.38245
       O     1.97176   -6.06811  -18.15550
      H1     1.93514   -5.32694  -18.74878
       H     6.33180   -8.36691  -13.12418
       O     7.20785   -8.76098  -12.78819
      H1     7.72203   -8.74819  -13.66230
       H    -1.54797   -9.14226  -17.07087
       O    -1.89286   -8.22806  -16.85110
      H1    -1.08920   -7.85757  -16.42092
       H     7.00920  -10.22455  -19.19353
       O     6.86111  -10.95352  -18.56222
      H1     5.97702  -10.73038  -18.11889
       H     6.52568  -14.40455  -15.59961
       O     5.72786  -13.81673  -15.80722
      H1     6.11575  -13.06148  -15.33419
       H     1.83198  -13.40179  -15.14044
       O     2.72995  -13.32047  -14.71276
      H1     3.38075  -13.16739  -15.44301
       H     6.69980  -10.90313  -14.15903
       O     6.82821  -11.89293  -14.09036
      H1     6.95619  -11.90184  -13.13165
       H     6.48753   -7.04272  -18.66687
       O     6.70766   -6.82019  -17.72691
      H1     5.88549   -6.80636  -17.26673
       H     1.58235   -8.94140  -15.22074
       O     2.18790   -9.60434  -14.83408
      H1     1.54679  -10.04974  -14.22325
       H     0.69808  -12.65685  -12.31052
       O     0.63784  -13.56524  -11.95154
      H1    -0.13804  -13.53729  -11.34148
       H     3.90472  -10.62264  -10.01073
       O     3.19826  -10.59421   -9.36554
      H1     3.52888  -11.11374   -8.64901
       H    -0.26991  -10.69453  -13.45972
       O     0.60272  -11.11979  -13.23777
      H1     0.85060  -10.59577  -12.45444
       H     4.69665   -7.74799  -14.55262
       O     4.52461   -8.18175  -13.68690
      H1     3.76307   -8.75695  -13.89893
       H     2.44026  -11.61971  -19.24073
       O     2.35613  -10.65584  -19.43540
      H1     2.78498  -10.22257  -18.63498
       H     1.29295   -5.12801  -16.78665
       O     1.17262   -4.80771  -15.86632
      H1     0.26310   -4.38501  -15.93614
       H     4.06750  -11.72883  -17.01170
       O     4.58160  -10.93554  -16.97804
      H1     3.90728  -10.42490  -16.52658
       H     4.57452  -11.48884  -11.87830
       O     4.89150  -10.65877  -11.53218
      H1     5.86681  -10.78679  -11.64713

