90
frame 3 | Written by MDAnalysis XYZWriter (release 2.4.3)
       H    -4.46537    6.70991   10.31322
       O    -3.71882    6.14116   10.06543
      H1    -3.60626    6.46206    9.14716
       H   -10.52311    7.24567   13.33091
       O    -9.71119    7.60164   12.88774
      H1    -9.05471    7.62573   13.58224
       H     0.03448   11.41922   12.00336
       O    -0.25906   11.41075   11.09285
      H1     0.34126   10.84622   10.62921
       H    -3.15553   11.43472   12.29017
       O    -2.94712   11.99411   13.02761
      H1    -3.04680   12.94773   12.73099
       H    -6.99814    8.52557    7.61243
       O    -6.72573    9.34599    7.15914
      H1    -7.52770    9.87596    7.46123
       H    -1.52471   11.70009    8.36653
       O    -2.14657   11.69554    9.13160
      H1    -1.46186   11.53016    9.78949
       H    -3.69300    3.24507    7.78146
       O    -3.69915    4.17895    7.99056
      H1    -4.38338    4.26982    8.66638
       H    -9.16618   11.49367    8.51921
       O    -8.80010   10.65922    8.30099
      H1    -9.54640    9.98914    8.41537
       H    -6.36379    4.14569    9.77270
       O    -5.91003    3.37975    9.40582
      H1    -6.66205    2.73099    9.43054
       H    -9.86890    4.98165    9.26343
       O    -9.37447    5.69873    9.52616
      H1    -8.95399    5.47339   10.42239
       H    -8.06697   12.16201   12.02550
       O    -8.61346   12.72130   12.65089
      H1    -9.21921   12.04118   13.07053
       H    -5.72764   10.94478   15.77829
       O    -5.76435    9.99271   15.92681
      H1    -6.26624    9.68418   15.16188
       H    -6.66781    7.81262   13.88405
       O    -7.34207    8.32479   14.33157
      H1    -7.71184    7.69000   15.00624
       H   -10.14557   10.10812   14.54915
       O    -9.93227   10.45628   13.64232
      H1    -9.31647    9.74865   13.33491
       H    -8.91634    5.47412   12.42315
       O    -8.17713    5.11088   11.89926
      H1    -8.48755    4.20684   11.67963
       H    -6.63842    8.39137    5.53600
       O    -6.48311    7.82250    4.78492
      H1    -5.72916    8.26466    4.41238
       H    -2.01776    6.45999   10.15702
       O    -1.09965    6.61111   10.52983
      H1    -0.64512    6.38788    9.69174
       H    -7.65078   11.20062    9.94176
       O    -7.24890   11.16928   10.80407
      H1    -6.47195   11.79561   10.78165
       H    -5.66973   11.12826    6.89293
       O    -5.21044   11.85087    7.37326
      H1    -5.90210   12.52368    7.55902
       H    -5.98450    9.73545   11.13500
       O    -5.39706    8.98591   11.10732
      H1    -4.92412    9.10829   10.27473
       H    -4.23840   13.24275   10.08526
       O    -4.98189   12.85231   10.59555
      H1    -5.27217   13.59822   11.12237
       H    -2.26871   13.83506   10.32742
       O    -2.57924   14.67074    9.93386
      H1    -1.97979   14.84198    9.19329
       H    -7.24246    5.60106    7.37791
       O    -7.59679    6.42347    7.83765
      H1    -8.37999    6.01882    8.33558
       H    -3.72612    5.23484   13.69418
       O    -3.83505    4.74224   12.84165
      H1    -4.33213    5.42215   12.32814
       H     0.78864    7.32483    7.53060
       O     0.52412    6.72452    8.22225
      H1    -0.41569    7.08339    8.09719
       H    -3.61265   10.44089    8.94190
       O    -3.97333    9.54281    8.81526
      H1    -4.73294    9.81682    8.21423
       H    -1.99367    5.08710   12.79315
       O    -1.03275    4.99955   12.55356
      H1    -0.99813    5.59191   11.75690
       H    -5.91042    7.57216   11.96479
       O    -5.85525    6.66152   12.35901
      H1    -6.60126    6.12687   11.99231
       H    -2.55520    8.59128    8.12352
       O    -1.88169    7.98552    7.66183
      H1    -1.62882    8.52446    6.88980
       H    -2.78879    9.64082   15.56330
       O    -3.37977    8.89718   15.66370
      H1    -4.31399    9.36679   15.68966

