90
frame 0 | Written by MDAnalysis XYZWriter (release 2.4.3)
       H    -8.03728    2.42511    7.93920
       O    -7.70985    2.14252    8.81587
      H1    -8.29685    2.67941    9.42338
       H   -13.70413    0.69916    3.17817
       O   -13.51641    1.41944    3.79138
      H1   -14.07000    2.16373    3.63567
       H   -10.07299   -1.39827    7.44305
       O   -10.62843   -1.62341    6.73466
      H1   -10.01021   -2.01288    6.12801
       H   -11.14980    2.93580    2.22450
       O   -11.20348    2.89677    3.19654
      H1   -12.03295    2.38422    3.33288
       H   -13.75119   -0.90480   10.39922
       O   -13.35532   -1.49377    9.73087
      H1   -14.16608   -1.91918    9.42921
       H   -10.01533    5.06302    8.25812
       O    -9.83284    5.98131    8.45973
      H1    -9.67572    5.90558    9.40190
       H   -10.35460    2.48376    7.99647
       O   -10.29908    3.40517    7.58746
      H1   -10.18564    3.22716    6.56732
       H    -7.34196    1.96521    5.96128
       O    -7.73617    1.07925    5.84331
      H1    -8.66817    1.25501    5.66019
       H   -12.57469    1.60119    9.61235
       O   -12.30441    2.23207    8.90103
      H1   -12.12057    1.60656    8.20310
       H   -10.34034    1.86378   12.86921
       O    -9.84642    1.34021   13.50548
      H1    -9.61863    0.55216   13.01024
       H   -12.74530    0.72196    5.45446
       O   -12.24005    0.81447    6.29284
      H1   -11.56048    0.09197    6.14198
       H    -8.57854    3.39592   11.48960
       O    -9.06139    3.74188   10.72692
      H1    -9.98833    3.55231   10.96106
       H   -11.48436    6.56513    8.66416
       O   -12.36803    6.77173    9.19409
      H1   -12.74313    5.85424    9.12866
       H   -15.68974    2.68453   12.48609
       O   -15.72687    1.98884   11.80147
      H1   -16.32953    1.32495   12.22001
       H   -15.77365    2.25293    8.44135
       O   -16.23752    1.51094    8.06423
      H1   -16.71218    1.96601    7.31223
       H    -6.14049   -1.22862    8.98410
       O    -6.62683   -0.60379    9.56425
      H1    -7.07798    0.04644    8.96642
       H    -9.73498   -0.06680    9.88646
       O    -9.69147    0.07450    8.96147
      H1    -8.85158    0.54752    8.84583
       H   -15.65121    5.83058    6.48042
       O   -16.04713    5.53064    7.32250
      H1   -15.23315    5.27792    7.76870
       H   -12.34759   -3.37417    6.60704
       O   -12.76966   -4.17214    6.29953
      H1   -13.50836   -3.90510    5.66226
       H   -10.30339    3.47905    4.29251
       O    -9.69051    3.87622    5.03612
      H1   -10.13074    4.76829    4.96393
       H   -12.44159   -2.67319   10.63961
       O   -12.09334   -3.32604   11.33194
      H1   -11.14009   -3.35688   11.20064
       H   -15.87319   -3.35284    8.01308
       O   -15.92031   -2.38238    8.16977
      H1   -15.45585   -2.00786    7.43179
       H    -9.04218   -1.54518   11.48370
       O    -8.99926   -0.56045   11.51911
      H1    -8.02289   -0.46924   11.43519
       H   -13.17584    4.76543    7.17497
       O   -13.48287    4.64387    8.09501
      H1   -12.91420    3.84729    8.26489
       H   -12.99656   -0.08936   11.91740
       O   -13.22954    0.68897   11.45841
      H1   -14.01180    1.03095   11.91889
       H   -12.06187    2.43949   11.71435
       O   -11.39421    3.05798   12.07924
      H1   -11.84232    3.53314   12.79926
       H   -14.06043    6.27022    5.29704
       O   -13.54782    5.41503    5.37742
      H1   -13.88241    4.89555    4.61236
       H   -14.72536   -0.54289    6.14160
       O   -14.20533   -1.28538    6.43529
      H1   -13.52555   -0.85171    6.94590
       H   -10.45916    1.45539    3.55030
       O    -9.94916    0.65772    3.83755
      H1   -10.56436   -0.02295    3.54258
       H   -14.88660    1.17184    4.86596
       O   -15.63647    0.70550    5.31523
      H1   -15.58018    0.88722    6.25808

