90
frame 3 | Written by MDAnalysis XYZWriter (release 2.4.3)
       H     1.13727   -9.98016    9.75968
       O     0.67777   -9.24101   10.18705
      H1     0.02009   -9.69293   10.67293
       H    -3.64814  -11.54565    7.48475
       O    -3.52601  -11.06311    6.59872
      H1    -2.84187  -10.37999    6.79356
       H    -8.63971   -7.59691   12.50893
       O    -7.89787   -7.69632   11.88236
      H1    -8.35251   -7.45442   11.04693
       H    -0.95423   -9.61390    5.55396
       O    -1.58560   -9.52076    4.84843
      H1    -1.33586   -8.60743    4.54063
       H    -2.07929   -4.61553   11.70542
       O    -1.59049   -3.96580   11.14473
      H1    -1.22251   -4.61094   10.46649
       H    -3.68788   -3.61971   12.50765
       O    -4.07583   -2.78745   12.18575
      H1    -3.72036   -2.68069   11.24224
       H    -6.09411   -9.44888   12.21717
       O    -5.82040   -9.94864   12.94086
      H1    -5.01744   -9.56364   13.33635
       H    -1.00586   -5.91911    6.62557
       O    -1.62148   -6.50092    7.08381
      H1    -2.51127   -6.29533    6.69945
       H     2.30891   -8.15671    6.46768
       O     1.39641   -7.88783    6.50547
      H1     1.22321   -8.13736    5.55791
       H    -6.82727   -7.85505    7.00214
       O    -7.75764   -7.66408    6.79571
      H1    -8.24568   -7.53340    7.60627
       H    -4.48489   -9.04987    8.48063
       O    -5.47517   -8.92306    8.39600
      H1    -5.76089   -9.68822    8.86181
       H    -2.32177  -11.23557   12.24998
       O    -2.65747  -11.34857   11.36469
      H1    -3.09366  -10.49257   11.28899
       H    -2.43790   -9.34345    9.13781
       O    -3.13157   -9.23831    9.79299
      H1    -2.67658   -8.52041   10.24055
       H    -1.06766  -10.56670    8.12634
       O    -1.36950   -9.74935    7.76714
      H1    -0.55995   -9.24538    7.75631
       H    -3.56571  -13.34683    9.07532
       O    -4.31365  -12.80518    8.76494
      H1    -4.79014  -13.34646    8.12502
       H    -1.59106  -14.05529   10.42759
       O    -1.85182  -13.29613    9.87503
      H1    -2.20476  -12.67513   10.52851
       H    -6.18583   -5.32352   13.29351
       O    -6.02711   -5.44788   12.35050
      H1    -6.63753   -6.09521   11.99833
       H     1.36709   -6.99946   12.45402
       O     2.07810   -7.06903   11.83683
      H1     2.00917   -7.85193   11.29814
       H     2.60324   -5.95837    8.65347
       O     1.76408   -5.85636    8.20302
      H1     1.71782   -6.71834    7.74553
       H     0.20414   -6.26051    9.49305
       O    -0.71352   -6.02748    9.54197
      H1    -1.02096   -6.26175    8.62462
       H     0.36834   -5.89960   14.54228
       O    -0.48010   -5.94171   14.06836
      H1    -0.46185   -5.03962   13.71570
       H    -2.28172  -12.22163   14.99077
       O    -1.54960  -11.83521   14.43960
      H1    -0.76323  -12.32827   14.55374
       H    -2.73344   -8.22776   12.84897
       O    -3.43258   -8.57142   13.44635
      H1    -3.04565   -8.41462   14.35020
       H    -5.30788   -5.81387    7.75497
       O    -5.45293   -5.42981    6.88626
      H1    -6.23684   -4.90891    7.01452
       H    -5.45946  -10.53823    5.58754
       O    -6.35218  -10.46900    5.95610
      H1    -6.14423   -9.88431    6.70207
       H    -0.44513  -12.42342    9.23777
       O     0.20271  -11.85882    8.75180
      H1     0.42174  -12.42324    7.99630
       H    -4.97132   -7.29594    9.37039
       O    -5.28711   -6.42489    9.69844
      H1    -4.86789   -6.24947   10.52472
       H    -3.27731   -5.30572   13.95232
       O    -3.23830   -5.40910   12.97703
      H1    -4.23721   -5.36165   12.72316
       H    -5.12704  -12.02408   10.23250
       O    -5.81938  -11.60934   10.71644
      H1    -5.56076  -11.46076   11.66044
       H    -1.37343   -7.04873   10.77688
       O    -1.97907   -7.33551   11.50465
      H1    -2.34711   -6.56027   11.95575

