90
frame 3 | Written by MDAnalysis XYZWriter (release 2.4.3)
       H    -8.20556    1.38867    8.65534
       O    -7.70908    1.30574    9.49931
      H1    -8.38195    1.71376   10.13088
       H    -4.46537    6.70991   10.31322
       O    -3.71882    6.14116   10.06543
      H1    -3.60626    6.46206    9.14716
       H    -1.37416    4.32199   10.55333
       O    -1.52499    3.63386    9.88363
      H1    -2.30982    3.99667    9.40992
       H    -6.99814    8.52557    7.61243
       O    -6.72573    9.34599    7.15914
      H1    -7.52770    9.87596    7.46123
       H    -3.69300    3.24507    7.78146
       O    -3.69915    4.17895    7.99056
      H1    -4.38338    4.26982    8.66638
       H    -4.03826    2.86061   12.83239
       O    -4.43715    2.10880   12.46525
      H1    -4.07592    1.34032   12.95030
       H    -6.36379    4.14569    9.77270
       O    -5.91003    3.37975    9.40582
      H1    -6.66205    2.73099    9.43054
       H    -9.86890    4.98165    9.26343
       O    -9.37447    5.69873    9.52616
      H1    -8.95399    5.47339   10.42239
       H    -8.32849    3.29388   14.45620
       O    -7.80680    2.70020   13.88239
      H1    -7.36306    2.02830   14.39974
       H   -11.33829    3.24895    7.96455
       O   -11.23740    4.22107    7.89566
      H1   -10.96658    4.32960    6.95580
       H    -8.27673    2.83130    6.86937
       O    -8.87540    2.11360    7.10965
      H1    -9.61055    2.17100    6.45465
       H    -6.66781    7.81262   13.88405
       O    -7.34207    8.32479   14.33157
      H1    -7.71184    7.69000   15.00624
       H    -4.89677    1.12094    7.07712
       O    -4.63073    1.99717    6.76726
      H1    -5.16204    2.47078    7.42964
       H    -7.54697    4.30075    5.71729
       O    -6.95065    4.27165    6.51446
      H1    -6.14633    4.53140    6.04237
       H    -5.83364    6.16497    4.52744
       O    -5.42794    5.30439    4.47973
      H1    -5.58867    5.12534    3.52387
       H    -8.91634    5.47412   12.42315
       O    -8.17713    5.11088   11.89926
      H1    -8.48755    4.20684   11.67963
       H    -2.01776    6.45999   10.15702
       O    -1.09965    6.61111   10.52983
      H1    -0.64512    6.38788    9.69174
       H    -8.66442    2.23543   12.45200
       O    -9.02511    2.42972   11.54155
      H1    -9.94415    2.13278   11.70120
       H   -11.23024    6.32487    9.62634
       O   -12.21944    6.13724    9.45573
      H1   -12.09677    5.57264    8.72993
       H    -5.98450    9.73545   11.13500
       O    -5.39706    8.98591   11.10732
      H1    -4.92412    9.10829   10.27473
       H    -2.04923    3.66553    6.71601
       O    -1.56100    3.51401    5.88154
      H1    -0.69784    3.96596    6.04901
       H    -9.70240   -1.63900    9.06864
       O    -8.73158   -1.47018    9.14677
      H1    -8.55925   -0.59449    9.48357
       H    -7.24246    5.60106    7.37791
       O    -7.59679    6.42347    7.83765
      H1    -8.37999    6.01882    8.33558
       H    -5.24320    4.29784   13.86225
       O    -5.77958    4.47181   14.65492
      H1    -6.59491    4.17910   14.29624
       H    -5.90830    1.14917   12.26102
       O    -6.56497    0.50093   11.95974
      H1    -6.93630    0.88559   11.15832
       H    -3.72612    5.23484   13.69418
       O    -3.83505    4.74224   12.84165
      H1    -4.33213    5.42215   12.32814
       H    -1.99367    5.08710   12.79315
       O    -1.03275    4.99955   12.55356
      H1    -0.99813    5.59191   11.75690
       H    -5.91042    7.57216   11.96479
       O    -5.85525    6.66152   12.35901
      H1    -6.60126    6.12687   11.99231
       H    -9.54762    7.87021    5.61815
       O    -9.98798    7.11677    6.04519
      H1    -9.14660    6.83686    6.51323
       H    -2.95520    1.89786    9.51968
       O    -3.66915    1.23665    9.66262
      H1    -4.37321    1.80865    9.96484

