90
frame 3 | Written by MDAnalysis XYZWriter (release 2.4.3)
       H    -4.12398  -12.56157  -15.76152
       O    -4.80791  -13.18042  -16.05954
      H1    -5.50861  -12.55526  -16.33722
       H    -5.48617  -13.84618  -14.17765
       O    -5.83087  -13.83057  -13.28676
      H1    -6.60452  -13.26911  -13.33633
       H    -1.19525  -14.92446   -9.78693
       O    -1.41359  -13.98183   -9.82523
      H1    -2.27058  -13.93129  -10.25016
       H    -2.28596  -11.50426  -15.90607
       O    -2.78436  -11.53734  -15.06426
      H1    -2.26716  -12.30688  -14.66326
       H    -2.24833  -11.48462  -18.37027
       O    -1.67627  -11.27353  -17.60613
      H1    -1.11086  -12.02809  -17.59712
       H     5.11736  -17.37922  -16.39746
       O     4.50327  -17.66621  -15.70768
      H1     4.46636  -16.78933  -15.20763
       H    -2.37243  -16.00930  -15.36192
       O    -1.48198  -16.23720  -15.24904
      H1    -1.35954  -16.30861  -14.28761
       H     3.60619  -14.86128  -14.39012
       O     3.91361  -15.56399  -13.74859
      H1     4.81067  -15.31839  -13.51856
       H     0.82649  -18.37341  -17.73214
       O    -0.05176  -18.08756  -18.02308
      H1    -0.56723  -18.31467  -17.21253
       H     2.09566  -13.35708  -18.23115
       O     3.05087  -13.07932  -18.06754
      H1     3.48884  -13.95122  -17.89716
       H     0.09810  -13.87064  -16.54824
       O     0.09680  -13.68151  -15.61040
      H1    -0.32152  -14.51956  -15.24877
       H     3.12711  -15.50477  -12.19707
       O     2.79741  -16.00568  -11.41612
      H1     2.77181  -16.92355  -11.75147
       H    -5.70647  -18.36541  -15.80758
       O    -4.85092  -17.99391  -15.52693
      H1    -4.40913  -18.65790  -14.95244
       H     0.72380  -16.85217  -13.86512
       O     0.27276  -16.51451  -13.05267
      H1     1.02171  -16.04159  -12.65991
       H    -4.56056  -15.19297  -12.85929
       O    -3.88343  -15.83810  -12.81941
      H1    -4.41241  -16.65966  -12.67272
       H    -2.12696  -14.37713  -13.03249
       O    -1.84382  -13.55531  -13.40568
      H1    -0.85863  -13.57934  -13.32342
       H    -4.49476  -13.20171  -11.67513
       O    -3.86520  -12.74954  -11.12392
      H1    -3.99425  -11.81787  -11.48512
       H    -0.40629  -18.35582   -9.82362
       O    -0.58129  -18.11926   -8.91161
      H1     0.19499  -17.60394   -8.73709
       H     0.99159  -16.49355  -16.04475
       O     1.49269  -17.19758  -15.66855
      H1     2.33155  -17.06207  -16.03193
       H    -4.74044  -14.82331  -16.95739
       O    -4.38174  -15.70326  -17.19873
      H1    -4.74770  -16.39293  -16.60381
       H     2.24145  -18.76256  -11.55417
       O     3.08339  -18.69332  -12.05701
      H1     3.76342  -18.85385  -11.40149
       H     0.71008  -14.59129  -18.93808
       O     0.39892  -13.65169  -18.73866
      H1     0.24087  -13.35558  -19.64449
       H    -0.34388  -19.53793  -11.68599
       O     0.12705  -18.79336  -11.32120
      H1    -0.03689  -18.00835  -11.90823
       H     1.83198  -13.40179  -15.14044
       O     2.72995  -13.32047  -14.71276
      H1     3.38075  -13.16739  -15.44301
       H     0.69808  -12.65685  -12.31052
       O     0.63784  -13.56524  -11.95154
      H1    -0.13804  -13.53729  -11.34148
       H    -1.51934  -17.80036  -15.25683
       O    -1.45778  -18.80009  -15.37027
      H1    -1.72222  -19.10853  -14.50108
       H    -1.13815  -16.39084  -18.78580
       O    -1.88676  -15.83976  -18.96917
      H1    -2.44915  -15.83081  -18.14377
       H    -7.51081  -16.57033  -19.22276
       O    -6.67270  -16.61715  -19.73070
      H1    -5.99746  -16.44781  -19.03678
       H    -0.26991  -10.69453  -13.45972
       O     0.60272  -11.11979  -13.23777
      H1     0.85060  -10.59577  -12.45444
       H    -3.77809  -19.66156  -12.81641
       O    -3.34151  -18.82302  -13.04960
      H1    -3.40260  -18.26767  -12.24496

