90
frame 3 | Written by MDAnalysis XYZWriter (release 2.4.3)
       H    -2.32641   15.52620    6.75365
       O    -2.30135   15.13428    5.83813
      H1    -1.31887   15.21473    5.57519
       H    -5.29093   17.20361    3.74841
       O    -4.41413   17.55149    3.40635
      H1    -4.73947   18.42929    3.31251
       H    -6.99814    8.52557    7.61243
       O    -6.72573    9.34599    7.15914
      H1    -7.52770    9.87596    7.46123
       H    -0.82916   10.19230    5.92789
       O    -1.36551    9.68380    5.30163
      H1    -0.73102    9.19823    4.77558
       H    -3.60787   13.72475    5.26152
       O    -4.20910   13.03203    5.02407
      H1    -4.40222   12.67629    5.89977
       H    -5.89816   17.31449    6.15905
       O    -5.24853   16.76129    6.59657
      H1    -4.75310   16.36755    5.79567
       H   -11.31783   10.29200    2.20464
       O   -11.31994   11.24464    2.19328
      H1   -10.45375   11.47676    1.82768
       H    -9.16618   11.49367    8.51921
       O    -8.80010   10.65922    8.30099
      H1    -9.54640    9.98914    8.41537
       H    -7.92888   15.47104    0.71777
       O    -7.30641   15.71150    1.40941
      H1    -7.56752   16.63357    1.56599
       H    -3.44808    8.77212    3.10031
       O    -4.34965    8.88836    3.18978
      H1    -4.28364    9.85686    3.16812
       H    -0.27334   13.30126    3.40906
       O    -0.49368   13.05846    4.34774
      H1    -1.39613   12.69493    4.13659
       H    -3.05690   13.95802   -0.98053
       O    -3.91749   13.58134   -0.65983
      H1    -3.72167   12.90914    0.06394
       H    -7.83554   13.38664    2.29372
       O    -8.00935   12.52997    2.69942
      H1    -7.12006   12.18939    2.87434
       H    -5.64547    8.39238    1.79289
       O    -6.18535    8.70408    1.07331
      H1    -6.79526    7.96928    0.95875
       H    -6.36487   15.24651    9.12391
       O    -6.46275   14.87412    8.21290
      H1    -5.98060   15.56456    7.68758
       H    -6.27155   10.52817    1.13246
       O    -6.25236   11.47538    0.85073
      H1    -7.25301   11.58329    0.98716
       H    -8.08126    8.94970    4.22363
       O    -8.99247    9.10835    4.56375
      H1    -8.88085    9.99908    4.85661
       H    -6.63842    8.39137    5.53600
       O    -6.48311    7.82250    4.78492
      H1    -5.72916    8.26466    4.41238
       H    -2.38740   15.27496    3.89959
       O    -2.04966   15.30206    3.02270
      H1    -2.78374   15.74598    2.49004
       H    -5.66973   11.12826    6.89293
       O    -5.21044   11.85087    7.37326
      H1    -5.90210   12.52368    7.55902
       H    -9.10165   12.20921    3.90724
       O    -9.89569   11.98647    4.45313
      H1   -10.53929   11.85968    3.71174
       H    -5.47152   11.76178    4.14828
       O    -6.41789   11.32455    4.39458
      H1    -6.84007   12.07297    4.80491
       H    -6.89960   14.84626    4.30609
       O    -6.15001   15.44951    3.98533
      H1    -6.44822   15.41592    3.04813
       H    -5.72030   11.34557   -1.08676
       O    -5.65452   11.23245   -2.03135
      H1    -4.65979   10.98863   -2.08578
       H    -8.50604   12.40027    5.69065
       O    -7.77254   12.86837    6.12281
      H1    -8.13148   13.75966    6.16212
       H    -9.33480   15.23514    4.60530
       O    -9.21865   15.36128    3.64858
      H1   -10.05447   14.95870    3.29189
       H    -3.61265   10.44089    8.94190
       O    -3.97333    9.54281    8.81526
      H1    -4.73294    9.81682    8.21423
       H    -2.41933   12.35357    1.85699
       O    -2.05136   12.46223    0.95015
      H1    -1.61829   13.33222    0.95641
       H    -4.90913   16.55718    1.05919
       O    -4.11946   16.06346    0.90211
      H1    -4.36259   15.20758    0.60804
       H    -3.58478   11.74439    4.05810
       O    -2.87628   11.32039    3.53980
      H1    -2.45138   10.68043    4.13272

