90
frame 3 | Written by MDAnalysis XYZWriter (release 2.4.3)
       H    17.04383   13.27963    4.85748
       O    17.48024   14.14372    4.79221
      H1    17.41856   14.51827    5.68861
       H    12.11626   14.51904    1.04253
       O    11.68644   14.52682    1.92918
      H1    11.71597   15.52222    2.18585
       H    14.80293   11.45142    5.12435
       O    15.40693   12.24270    5.16554
      H1    14.86487   12.80139    4.65640
       H    15.93499   13.70470    1.82899
       O    16.60516   14.37768    1.99587
      H1    16.92901   14.25639    2.89301
       H    12.49256   17.57899    2.23130
       O    11.74816   17.15070    2.69488
      H1    12.17392   17.11614    3.58103
       H    15.04272   18.22600   -0.02462
       O    14.57904   18.50931    0.74749
      H1    15.01888   19.34935    1.09578
       H    16.77842   16.36403   11.84242
       O    16.04086   16.05796   11.27687
      H1    16.29307   16.41256   10.42361
       H    11.97697   16.79563    5.54854
       O    12.65229   17.45792    5.30416
      H1    12.29840   18.21776    5.76784
       H    13.87248   12.43010   11.64488
       O    14.04772   12.83362   10.78253
      H1    15.04298   13.01329   10.82030
       H    18.90137   14.49928    7.60166
       O    18.41790   15.22328    7.27038
      H1    19.00612   15.39358    6.49203
       H    13.96233   11.86578    2.19493
       O    14.77791   12.43400    2.02256
      H1    15.45320   11.89830    2.41844
       H    19.59797   17.32651    5.91201
       O    19.53972   16.57572    5.27355
      H1    18.64462   16.61877    4.96720
       H     8.26765   13.63866    5.12185
       O     8.94780   13.76841    4.39100
      H1     9.58599   14.34474    4.88351
       H    13.07665   14.89363   11.42387
       O    13.29530   15.79063   11.10180
      H1    14.21815   15.94707   11.25924
       H    14.05630   18.24312    7.64176
       O    14.84524   18.75734    7.86857
      H1    15.50091   18.10748    7.96779
       H    17.12953   17.58425    3.46018
       O    17.05844   17.74593    4.44559
      H1    16.34267   17.14714    4.69450
       H    10.19211   15.25184    7.05613
       O    10.63398   15.28333    6.16779
      H1    11.34805   14.67758    6.42712
       H    16.43765   14.40178   11.35010
       O    16.65279   13.46598   11.23955
      H1    17.39879   13.47602   10.62002
       H    18.97494   19.29491    7.34488
       O    19.49444   19.37988    6.48620
      H1    18.80677   19.79496    5.92006
       H    14.11212   16.72582    5.81477
       O    15.00991   16.31567    5.81097
      H1    14.90193   15.49781    5.23606
       H    12.21429   16.85006    9.23802
       O    12.46533   17.68057    8.83467
      H1    11.61961   18.14011    8.68787
       H    14.77568   15.86619    7.68335
       O    14.42894   15.33006    8.42918
      H1    14.02365   15.87267    9.12585
       H    14.33181   11.14674    8.33963
       O    13.41759   11.17774    7.97434
      H1    13.55969   10.64571    7.14270
       H    12.93063   12.65385    6.84747
       O    12.70635   13.54421    6.55895
      H1    13.36679   14.15553    6.99192
       H    12.82806   13.80999    4.71525
       O    13.44491   14.31929    4.12289
      H1    12.93385   14.39314    3.29244
       H    16.15417   12.48707    6.98384
       O    16.31164   12.47956    7.98733
      H1    15.75828   13.24185    8.26741
       H    17.90462   12.56414    9.09294
       O    18.74477   12.70418    9.60249
      H1    19.24786   11.94190    9.26180
       H    17.59282   17.86379    8.85528
       O    17.11902   17.06215    8.80124
      H1    17.66308   16.54952    8.13164
       H    13.43958   18.41895   10.32290
       O    13.58557   19.14190   10.99250
      H1    13.81579   18.67799   11.73101
       H    16.59476   16.12381    1.97032
       O    16.84295   17.03538    1.91602
      H1    16.07501   17.47465    1.52440

