90
frame 3 | Written by MDAnalysis XYZWriter (release 2.4.3)
       H    12.26421   -7.57239    2.72786
       O    12.73738   -7.98237    3.48707
      H1    13.49249   -8.35151    3.07993
       H    16.94215  -14.41597    7.75495
       O    16.81995  -13.57872    7.28280
      H1    16.81876  -13.85562    6.35135
       H    13.69064   -5.57699    4.47005
       O    13.08242   -5.99610    5.09854
      H1    12.63811   -6.55782    4.44385
       H    16.66043   -9.51458    0.45279
       O    16.64255   -8.54016    0.52930
      H1    17.23212   -8.29919   -0.20220
       H    19.53574  -10.56632    2.72030
       O    19.05618  -10.37026    1.86537
      H1    18.71598   -9.48094    1.86659
       H    12.28676  -12.03081    8.82946
       O    12.95064  -12.61379    8.41188
      H1    13.54037  -11.93468    7.93418
       H    14.55131   -4.52681    7.80216
       O    15.19569   -5.18295    8.20139
      H1    14.93804   -5.13042    9.11331
       H    14.73963   -8.55038    0.64373
       O    13.80271   -8.68533    0.48451
      H1    13.56540   -9.55331    0.87638
       H    18.31397   -9.65171    8.55543
       O    17.57279   -9.93283    8.03035
      H1    17.37506   -9.05712    7.62589
       H    12.28684  -10.14014    2.86254
       O    12.67083  -11.00597    2.60455
      H1    12.38898  -11.00333    1.64135
       H    16.87242   -7.01285    8.09065
       O    17.61588   -6.76818    7.49054
      H1    17.15418   -6.52740    6.68110
       H    16.87440   -4.41602    9.08809
       O    17.81429   -4.01705    9.15180
      H1    18.23085   -4.59551    8.43605
       H    19.17170  -11.41780    9.91990
       O    19.74672  -10.68274    9.64612
      H1    19.81017  -10.16107   10.51830
       H    17.61304   -8.40688    4.15394
       O    18.31999   -8.15377    3.53076
      H1    17.95799   -7.27585    3.31251
       H    12.23379   -9.37773    7.17384
       O    12.50673   -9.34639    6.24218
      H1    12.97548   -8.49728    6.26985
       H    15.30035  -12.99429   -0.35596
       O    15.54621  -12.08095   -0.07479
      H1    15.57415  -12.14204    0.87767
       H    15.29534   -8.51739    8.41104
       O    15.51618   -7.77986    8.94425
      H1    14.92126   -7.09167    8.50132
       H    16.67671   -6.70684    1.39127
       O    16.57801   -6.22075    2.27271
      H1    16.86831   -5.35645    1.97165
       H    18.12458   -5.50156   10.05013
       O    18.33786   -6.36005   10.40944
      H1    19.02161   -6.75153    9.88687
       H    16.43536  -10.17960   11.13086
       O    16.89893   -9.31989   11.24357
      H1    16.44304   -8.66375   10.71427
       H    12.28063   -6.97694    8.36184
       O    12.40979   -7.89476    8.63376
      H1    11.50257   -8.17991    8.69762
       H    14.07253  -11.10544   10.78188
       O    13.37144  -11.44785   11.42148
      H1    12.75538  -10.73583   11.60803
       H    16.76490  -12.38581    9.73573
       O    16.79806  -12.44313   10.71256
      H1    17.52244  -13.06378   10.88181
       H    14.44338  -10.30264    3.10754
       O    15.11310   -9.58982    3.18842
      H1    15.93075   -9.96076    2.79555
       H    17.88837  -11.25998    6.42678
       O    17.92532  -11.06857    5.45291
      H1    17.51146  -11.88855    5.10240
       H    15.93576   -9.08757    4.80728
       O    16.42476   -8.82798    5.58417
      H1    16.99786   -9.60833    5.71177
       H    14.93273   -5.36047    2.57037
       O    14.09803   -4.80925    2.50335
      H1    13.43071   -5.43979    2.20908
       H    16.65545  -12.60514    3.18676
       O    16.71235  -11.89545    2.56847
      H1    17.57009  -11.95184    2.17580
       H    17.19435  -14.64180    4.64277
       O    16.55421  -13.95173    4.57344
      H1    15.77817  -14.38933    4.93178
       H    15.31745  -10.73939    7.52899
       O    14.41991  -10.52878    7.67220
      H1    14.01758  -10.23288    6.82560

