90
frame 3 | Written by MDAnalysis XYZWriter (release 2.4.3)
       H    -6.63943    2.37438   -6.06264
       O    -6.72375    3.30790   -5.85225
      H1    -6.16118    3.66818   -6.54792
       H    -7.98529    0.64066   -8.94778
       O    -8.55428   -0.13552   -8.99361
      H1    -8.91954   -0.43312   -8.12272
       H    -5.66792   -2.08576   -9.81237
       O    -6.39769   -1.85839  -10.42129
      H1    -6.99786   -1.36761   -9.80096
       H    -3.02764   -7.92379   -3.71367
       O    -2.62019   -7.10734   -3.47034
      H1    -3.41687   -6.55286   -3.44938
       H     0.01402   -2.97609   -7.52179
       O     0.34871   -3.04222   -6.64311
      H1     0.59977   -4.00790   -6.58732
       H    -2.58479    0.12269   -5.22442
       O    -2.24901   -0.50145   -4.53948
      H1    -1.37387   -0.13007   -4.35950
       H    -6.35403   -6.34037   -3.06398
       O    -5.98176   -6.52069   -2.13676
      H1    -5.30001   -5.84283   -2.02891
       H    -3.70266   -0.66241   -3.42006
       O    -4.11445   -0.63369   -2.53265
      H1    -3.48931   -0.10569   -2.00328
       H    -2.52499   -5.02817  -10.21117
       O    -2.57134   -5.59074   -9.41980
      H1    -3.34203   -5.15680   -8.97758
       H   -10.96534   -2.33541   -3.53353
       O   -10.23581   -1.93708   -4.06550
      H1    -9.38685   -2.22438   -3.71066
       H    -3.26593   -1.72493   -5.11838
       O    -3.79812   -2.52043   -5.31079
      H1    -4.59726   -2.09483   -5.73527
       H    -7.55558   -0.31565   -2.77808
       O    -7.49560   -1.07466   -3.42233
      H1    -6.80621   -1.59478   -2.95853
       H    -1.45115   -2.25472   -7.85083
       O    -0.97204   -2.04603   -8.64827
      H1    -0.60759   -1.15574   -8.57691
       H    -9.99210   -1.07897   -5.98049
       O   -10.28423   -0.78954   -6.85178
      H1   -10.24733    0.19413   -6.96470
       H    -8.25588   -4.49925   -8.91799
       O    -7.98917   -4.77943   -8.00981
      H1    -8.79654   -5.20658   -7.69020
       H    -6.75198    1.67712   -2.52385
       O    -7.39576    1.11995   -2.04121
      H1    -6.87681    0.87307   -1.24917
       H    -3.70755    1.04235   -7.43010
       O    -3.64880    0.95060   -6.45456
      H1    -4.53646    0.69787   -6.18730
       H    -6.30648   -5.01746   -8.24236
       O    -5.35382   -5.06677   -8.19770
      H1    -5.18883   -5.24437   -7.30425
       H    -5.09537   -2.10571   -2.40826
       O    -5.80895   -2.83325   -2.23762
      H1    -5.49011   -3.43066   -2.91964
       H    -2.55803   -3.80507   -5.73615
       O    -2.04401   -4.50387   -6.13538
      H1    -1.49316   -4.82545   -5.39180
       H    -3.10657   -6.56190   -6.71213
       O    -3.59844   -7.10999   -6.08113
      H1    -3.10757   -6.86532   -5.23882
       H    -3.27381   -4.24704   -2.74258
       O    -3.96681   -4.65218   -3.27533
      H1    -3.93700   -4.08214   -4.05460
       H     0.76892   -3.11537   -3.47536
       O    -0.06951   -2.67742   -3.71502
      H1    -0.16237   -2.93448   -4.63730
       H    -9.27290   -3.17781   -5.41548
       O    -8.44689   -3.16300   -5.83365
      H1    -8.57823   -3.77766   -6.60605
       H    -8.22169   -5.50272   -3.43749
       O    -7.69967   -5.63214   -4.25418
      H1    -8.05887   -4.96596   -4.89187
       H    -2.12759    1.11381   -8.81039
       O    -3.05393    1.37927   -8.95711
      H1    -3.19816    0.77085   -9.74774
       H    -3.94079   -1.15207   -9.92953
       O    -3.90167   -1.88685   -9.29446
      H1    -2.98091   -2.09558   -9.24008
       H    -6.23004   -0.35816   -6.01204
       O    -6.26405    0.52261   -5.57544
      H1    -6.73005    0.23447   -4.70825
       H    -6.00558   -2.41595   -7.46677
       O    -6.14670   -1.81648   -6.70451
      H1    -7.01161   -2.11349   -6.31543
       H    -1.37166   -2.86710   -2.41567
       O    -2.04926   -3.14515   -1.76748
      H1    -1.73811   -2.59919   -0.97043

