90
frame 3 | Written by MDAnalysis XYZWriter (release 2.4.3)
       H    14.46484   -1.00663   19.12737
       O    14.33801   -0.05830   19.36639
      H1    15.16262    0.10051   19.76285
       H    14.51177    0.53903   13.20426
       O    14.96826   -0.26070   13.53251
      H1    15.74294    0.20391   13.92135
       H     9.60620   -2.33387   13.49065
       O    10.32984   -2.45306   12.84740
      H1    10.93475   -1.85652   13.28119
       H    12.96815   -0.32208   17.36992
       O    12.23720   -0.13670   16.81290
      H1    11.41509   -0.53728   17.13888
       H     9.02743   -2.87551   15.97514
       O     8.33494   -3.48914   16.28286
      H1     8.88295   -4.31392   16.61685
       H    11.34344   -3.29872   14.60613
       O    11.39025   -3.25302   15.60976
      H1    11.82323   -4.05183   15.96131
       H    10.24693   -1.81581   20.01424
       O    10.25672   -2.21567   19.11028
      H1    11.13722   -2.66213   19.05403
       H     6.96578   -6.00077   16.41727
       O     7.55006   -6.72811   16.24849
      H1     7.04382   -7.43385   15.86383
       H     9.10484   -6.18595   17.13268
       O     9.75612   -5.57397   17.49441
      H1     9.25386   -5.47654   18.37764
       H     7.34553   -3.20720   17.95638
       O     7.04217   -3.30355   18.87642
      H1     7.66849   -3.93761   19.33003
       H    12.24854   -7.65922   10.50430
       O    11.58157   -7.61981   11.21382
      H1    11.68333   -6.72616   11.60728
       H    15.89625   -4.94174   12.46039
       O    16.03944   -4.50382   11.62478
      H1    16.85887   -3.97232   11.76692
       H    13.65256   -1.32060   11.90764
       O    13.57276   -1.78692   11.04309
      H1    14.06347   -2.57022   11.24176
       H    11.84830   -0.60663   15.13650
       O    11.77777   -0.58155   14.17383
      H1    10.91783   -0.15357   14.08639
       H    13.07779   -3.49389   18.75726
       O    12.38599   -4.20149   18.80728
      H1    12.76546   -4.82391   19.49301
       H    12.30237   -5.07475   17.57298
       O    12.30459   -5.45725   16.65122
      H1    11.34209   -5.59388   16.63948
       H    15.19472   -3.59516   14.83910
       O    16.02347   -3.96607   14.43092
      H1    16.65710   -3.23813   14.51336
       H     8.00371   -5.77031   14.50457
       O     8.11139   -5.63054   13.55928
      H1     7.92787   -6.49259   13.18514
       H    13.10120   -2.33317   15.37271
       O    14.09809   -2.30209   15.36229
      H1    14.11982   -1.34808   15.14673
       H    12.65699   -7.07165   17.03874
       O    12.70181   -7.88189   17.64532
      H1    13.57620   -8.23487   17.30334
       H    14.76359   -8.65155   15.06083
       O    13.80356   -8.48959   15.01508
      H1    13.76664   -7.83386   14.29702
       H    11.32473   -9.01622   17.35816
       O    10.83445   -9.86541   17.47442
      H1    11.60859  -10.27999   17.93444
       H     7.01157   -3.56200   14.56825
       O     6.24922   -3.36043   14.03471
      H1     6.47784   -3.79433   13.19573
       H     9.20749   -9.36238   14.88005
       O     9.38298   -8.46364   14.63908
      H1    10.41191   -8.31779   14.71858
       H    14.62780   -2.57542   17.16384
       O    14.42316   -2.63988   18.10366
      H1    15.22574   -3.07382   18.44168
       H     9.79904   -5.07829   12.69802
       O    10.71367   -5.08627   12.35922
      H1    10.91311   -4.14223   12.41673
       H     9.56107    0.42075   18.22449
       O     9.44653   -0.20265   17.50227
      H1     9.76027   -0.98651   18.03441
       H     9.00569   -0.56006   15.71123
       O     8.66107   -1.10335   15.00285
      H1     8.35062   -0.41592   14.38571
       H    15.78962   -6.39445   19.08894
       O    16.62580   -6.38271   18.65042
      H1    16.37580   -7.02620   17.93952
       H    16.88710   -3.96937   16.65164
       O    17.31787   -3.18994   17.09828
      H1    17.15391   -3.51996   17.97896

