90
frame 3 | Written by MDAnalysis XYZWriter (release 2.4.3)
       H    -9.43890  -18.81567   14.56606
       O    -9.96208  -19.00487   15.39961
      H1    -9.24728  -19.42160   15.90107
       H   -10.39777  -10.43651   11.50074
       O   -10.20061  -10.72110   10.62969
      H1   -10.91950  -11.14799   10.21712
       H    -6.83201  -13.34021   10.81673
       O    -6.87472  -14.15660   11.37638
      H1    -6.36878  -14.81685   10.79471
       H   -11.93749  -16.20318   18.02428
       O   -11.88582  -16.39770   18.97312
      H1   -12.72834  -16.06661   19.26969
       H   -13.60613  -12.06357   15.20546
       O   -14.22261  -11.69086   14.55492
      H1   -14.50643  -12.55172   14.06356
       H   -13.42710  -13.28377   17.70281
       O   -13.09573  -13.61222   16.88418
      H1   -12.12332  -13.63373   17.04315
       H    -9.60087  -19.69184   12.61654
       O    -9.42522  -18.72550   12.77677
      H1   -10.14327  -18.25334   12.22668
       H   -16.71643  -13.98613   17.71427
       O   -16.24900  -13.38943   17.05928
      H1   -15.42243  -13.84334   16.91028
       H   -15.01083  -18.75938   15.22122
       O   -14.45362  -18.98368   15.97419
      H1   -13.72314  -19.43736   15.50974
       H   -13.05553  -11.36035   10.83604
       O   -12.64727  -12.07074   11.32633
      H1   -13.09770  -12.88688   11.09125
       H   -15.04117  -20.02845   13.07003
       O   -15.36473  -19.14000   13.32227
      H1   -14.86822  -18.52824   12.78143
       H   -15.70932  -14.35505    8.97821
       O   -15.10995  -15.01392    8.56900
      H1   -15.35694  -15.83333    8.91266
       H   -10.43192  -15.48476    9.72358
       O   -10.72512  -16.30468    9.25451
      H1   -11.34138  -15.87054    8.63378
       H   -11.27612  -17.43646   10.65609
       O   -11.49959  -17.78253   11.55063
      H1   -11.69366  -16.99950   12.07337
       H    -8.92463  -16.05503   13.45651
       O    -9.48260  -15.24057   13.66810
      H1    -9.52332  -14.78641   12.81837
       H   -14.09964  -17.84910   11.03070
       O   -14.45470  -17.12922   11.58356
      H1   -15.29787  -16.93285   11.16495
       H   -11.99982  -13.72844   13.74624
       O   -11.57144  -12.90098   13.90620
      H1   -12.06407  -12.27331   13.41022
       H   -13.30249  -15.29222   11.04295
       O   -13.44185  -14.47768   10.54215
      H1   -14.00293  -14.91826    9.89909
       H   -12.51984  -16.44740   13.94577
       O   -12.14848  -15.80082   13.36813
      H1   -11.23986  -15.74280   13.78793
       H   -17.14219  -16.57504   16.28601
       O   -17.63007  -16.59617   15.40134
      H1   -18.19927  -17.39938   15.44189
       H   -10.04116  -13.15125   16.27210
       O   -10.49380  -13.27766   17.13548
      H1   -10.64845  -12.37857   17.49579
       H   -13.17466  -10.01822   12.30745
       O   -12.86139  -10.00646   13.23630
      H1   -13.42263  -10.77739   13.55483
       H   -15.26317  -15.99698   18.09661
       O   -15.64647  -16.69263   17.53140
      H1   -14.96935  -16.91577   16.88235
       H   -10.38088  -15.93040   15.69057
       O   -11.16611  -16.46517   15.91132
      H1   -10.97167  -17.39539   15.72519
       H   -15.11318  -14.96589   12.90233
       O   -14.66508  -14.06057   13.05177
      H1   -14.16690  -13.95698   12.20593
       H   -10.04647  -11.95160   14.56456
       O    -9.09496  -11.88060   14.49831
      H1    -8.78467  -12.79671   14.22372
       H   -17.21777  -16.25181   13.47413
       O   -16.83474  -15.65528   12.78444
      H1   -17.56180  -15.74014   12.12134
       H   -11.12182  -13.73480   11.11464
       O   -10.29308  -14.23387   10.93784
      H1    -9.62504  -13.55707   10.90752
       H   -16.55789  -13.40203   12.96329
       O   -16.98159  -12.53241   12.95125
      H1   -16.76178  -12.07546   13.76644
       H    -6.84919  -17.69807   13.19700
       O    -6.88760  -17.21605   14.02443
      H1    -6.48033  -17.94171   14.58462

