90
frame 3 | Written by MDAnalysis XYZWriter (release 2.4.3)
       H    -1.49372    0.41301  -13.79100
       O    -1.40983   -0.22346  -13.02694
      H1    -2.20904   -0.07422  -12.48380
       H    -2.24748   -3.30821  -13.22998
       O    -2.36070   -2.70965  -14.01316
      H1    -2.02549   -1.85333  -13.73635
       H    -3.56126    2.03312  -18.08134
       O    -3.15710    1.48385  -17.45642
      H1    -2.40281    1.25371  -17.96174
       H    -6.38337    2.27256  -17.91118
       O    -7.16373    2.11843  -17.31967
      H1    -7.69922    1.42861  -17.80380
       H    -3.55492    3.62712  -12.99016
       O    -4.07680    3.97816  -13.68093
      H1    -4.84495    3.35330  -13.79908
       H    -5.30601    1.61449  -14.96210
       O    -6.23080    1.82312  -14.78251
      H1    -6.64369    1.93224  -15.64707
       H    -6.12683    6.24494  -15.57895
       O    -6.13699    6.78915  -14.81903
      H1    -6.45812    6.13653  -14.17321
       H    -5.78428   -1.40804  -14.43956
       O    -6.29597   -0.88314  -15.09300
      H1    -6.16097   -0.00438  -14.69323
       H    -5.25384   -1.24551  -16.45859
       O    -4.54262   -1.11136  -17.12424
      H1    -5.07123   -0.78738  -17.88795
       H    -1.73523    3.86245  -10.71488
       O    -2.11162    3.08948  -11.20226
      H1    -2.76252    2.80600  -10.49846
       H    -0.19803    0.87964  -12.18790
       O     0.11926    1.79731  -12.08755
      H1    -0.80337    2.11436  -11.78492
       H    -8.87626   -2.10693  -12.79535
       O    -8.61191   -1.26193  -12.43501
      H1    -7.69297   -1.29690  -12.55416
       H    -7.62801    4.41062  -12.44226
       O    -7.29927    5.26103  -12.15418
      H1    -8.17248    5.76075  -12.16724
       H    -0.98942   -0.80326  -18.64397
       O    -0.96286   -0.40740  -17.80685
      H1    -1.87287   -0.62415  -17.50971
       H    -3.19989    1.06038  -15.56789
       O    -3.52701    1.25076  -14.68231
      H1    -3.61074    2.23551  -14.70074
       H    -4.63400    6.33336  -12.39422
       O    -4.30595    7.04871  -11.77528
      H1    -5.17419    7.54444  -11.59840
       H    -3.97510   -0.53260  -11.99784
       O    -3.56364    0.09506  -11.42089
      H1    -4.19826    0.84263  -11.65217
       H    -8.35013    1.93154  -12.11532
       O    -7.92004    2.63590  -12.63350
      H1    -7.34894    2.19065  -13.29862
       H    -6.78502    5.93370  -17.63169
       O    -5.85287    5.97145  -17.49244
      H1    -5.69972    6.89989  -17.70592
       H    -6.02579    4.93378  -10.98073
       O    -5.18186    4.77015  -10.48561
      H1    -4.58895    5.38298  -10.97161
       H    -9.49260    0.08568  -13.53935
       O   -10.21354    0.00029  -14.21115
      H1   -10.57279    0.90637  -14.37402
       H    -8.12509    3.79195  -18.00393
       O    -8.54080    4.48920  -18.49104
      H1    -9.32457    4.71701  -17.95738
       H    -9.23606   -0.08336  -15.64137
       O    -8.80503   -0.20085  -16.48871
      H1    -8.01818   -0.73439  -16.17138
       H    -3.90346   -1.92209  -13.68077
       O    -4.63435   -1.72190  -13.05965
      H1    -4.71517   -2.58449  -12.63646
       H    -0.95329    3.68446  -16.36809
       O    -0.84187    2.86517  -16.88702
      H1    -1.80101    2.56391  -17.00778
       H    -7.20263   -2.29099  -18.53328
       O    -7.02867   -1.41862  -18.93490
      H1    -6.59675   -1.75761  -19.74067
       H    -5.29342    3.15275  -11.23497
       O    -5.27256    2.27475  -11.62022
      H1    -5.87690    1.82532  -11.05322
       H    -0.00568    1.17096  -15.94126
       O     0.49738    0.36424  -15.85672
      H1     0.16119   -0.24140  -16.53374
       H    -3.54677    4.71987  -15.38640
       O    -2.87121    5.03963  -16.00784
      H1    -2.02083    5.11296  -15.52717
       H    -4.82790    3.92876  -18.92686
       O    -5.00782    2.96632  -18.80394
      H1    -5.17592    2.62151  -19.70641

