90
frame 3 | Written by MDAnalysis XYZWriter (release 2.4.3)
       H     6.10280  -19.08913    6.04256
       O     5.79170  -18.36750    6.53956
      H1     6.52804  -18.22028    7.08815
       H     3.12600  -16.88493   15.64512
       O     2.54322  -17.66235   15.54801
      H1     2.38144  -17.57209   14.56403
       H     9.65153  -16.58608    7.74223
       O     8.72828  -16.56066    7.64937
      H1     8.53013  -16.34485    6.69832
       H     2.16259  -14.07882    7.34891
       O     1.21004  -14.02975    7.30778
      H1     1.03151  -14.26128    6.36506
       H     7.82233  -18.49777   12.96777
       O     7.78966  -18.06565   13.82200
      H1     6.86136  -18.31054   14.08926
       H     0.79339  -18.92664   10.04917
       O     0.58408  -18.48089   10.89248
      H1    -0.17194  -19.01624   11.18879
       H     3.12444  -17.03213   12.68857
       O     2.72692  -17.91924   12.81622
      H1     2.23165  -18.03955   11.97712
       H     5.68396  -11.64407   13.22301
       O     5.73320  -11.60314   12.28735
      H1     5.18791  -12.35343   11.98681
       H     3.94559  -19.26242   12.20334
       O     4.79070  -19.48627   11.68683
      H1     4.37170  -19.82295   10.84956
       H    10.54817  -15.61402   11.55830
       O    11.36166  -15.63558   12.05634
      H1    11.96654  -15.22860   11.35186
       H     4.49675  -17.43891    7.54190
       O     3.96843  -16.95577    8.20734
      H1     4.56242  -17.12207    8.98152
       H     3.46597  -17.89750    4.70806
       O     3.44136  -16.92647    4.56018
      H1     3.90460  -16.49660    5.29069
       H     4.33192  -18.05990   15.06407
       O     5.22565  -18.42408   15.07723
      H1     5.48967  -18.36547   16.05662
       H    -1.11923  -16.49519   10.04508
       O    -0.32998  -15.97062   10.19204
      H1     0.31806  -16.59456   10.61146
       H     8.74504  -18.93269   10.53640
       O     8.22048  -18.36084   11.10802
      H1     7.39647  -18.28778   10.61864
       H     5.00978  -13.82936   10.69271
       O     4.19992  -13.39994   11.01451
      H1     3.93371  -12.86841   10.19406
       H     7.47808  -14.49477   10.91101
       O     6.59553  -14.76619   11.12341
      H1     6.80475  -14.94416   12.06636
       H     9.26429  -19.18623   16.65801
       O     9.27593  -19.50966   15.77071
      H1     8.68334  -18.99587   15.29819
       H     8.71441  -12.08029   13.33157
       O     8.42168  -12.52215   12.50287
      H1     7.45393  -12.37344   12.62672
       H    12.23031  -18.28539   10.82998
       O    11.56234  -17.71644   10.41497
      H1    11.52368  -16.95171   11.05246
       H     3.04538  -18.50815    8.61210
       O     2.34876  -19.13313    8.79232
      H1     1.74896  -18.80210    8.10077
       H     3.90109  -15.57714    7.35978
       O     3.98997  -14.81389    6.75274
      H1     4.98406  -14.85474    6.63239
       H     4.92113  -15.23746   16.35095
       O     4.16195  -15.80769   16.42083
      H1     3.62181  -15.16577   16.89021
       H     5.51650  -17.94743   10.79962
       O     5.84758  -17.35619   10.13890
      H1     5.84953  -16.52223   10.58838
       H     8.77679  -16.57986   10.68740
       O     9.16755  -15.76544   10.35033
      H1     9.02198  -15.69240    9.41754
       H     4.78470  -15.60857   12.97274
       O     3.84621  -15.40768   12.98177
      H1     3.61699  -14.99326   12.14140
       H     6.94733  -14.70228    8.04788
       O     6.40669  -14.08470    7.51833
      H1     5.87488  -13.61486    8.17374
       H     7.59313  -14.36178   16.25164
       O     6.62432  -14.52248   16.01195
      H1     6.53348  -13.73373   15.45826
       H     6.79073  -15.46134   14.60201
       O     6.62983  -15.73588   13.66113
      H1     7.24626  -16.51627   13.76303
       H     8.02973  -18.11203    5.11658
       O     8.64215  -18.50692    5.81075
      H1     8.63788  -17.89483    6.54116

