90
frame 3 | Written by MDAnalysis XYZWriter (release 2.4.3)
       H     8.32565    9.73503    2.42663
       O     8.65941    9.32346    3.25477
      H1     9.42559    9.85177    3.59599
       H     9.01477   15.45987   -4.25681
       O     9.83932   15.86357   -4.58118
      H1    10.01094   16.39540   -3.82733
       H    12.11626   14.51904    1.04253
       O    11.68644   14.52682    1.92918
      H1    11.71597   15.52222    2.18585
       H     7.01267   14.20093   -1.87116
       O     7.24717   13.27737   -2.09099
      H1     6.77811   12.97550   -2.91586
       H     7.71365   13.39477    0.69866
       O     7.68422   12.44329    1.00045
      H1     7.38948   12.58421    1.94097
       H    13.67307   14.66670   -0.98761
       O    12.74961   14.76263   -0.71159
      H1    12.45672   13.89971   -1.01689
       H    11.39787   12.07933   -2.32287
       O    11.75823   11.96745   -1.39300
      H1    11.03220   12.29911   -0.89091
       H     5.14824   11.57943    0.24130
       O     4.95466   11.81511   -0.70070
      H1     5.80611   12.23901   -1.01236
       H    13.96233   11.86578    2.19493
       O    14.77791   12.43400    2.02256
      H1    15.45320   11.89830    2.41844
       H    13.11065    9.82459   -3.37404
       O    13.52910    8.94659   -3.41699
      H1    13.29954    8.77738   -2.44595
       H     9.67299   15.60093   -1.20741
       O     9.59109   16.48526   -0.79893
      H1    10.51578   16.61637   -0.71476
       H    14.48507   12.00453    0.25597
       O    14.56310   11.64918   -0.64011
      H1    13.62696   11.19215   -0.68749
       H    11.13604   13.41182   -4.63835
       O    11.05702   12.66150   -3.99161
      H1    10.24628   12.25185   -4.28451
       H    11.74760    8.08728    2.23370
       O    12.54172    8.69762    2.06991
      H1    12.50255    8.67483    1.07832
       H    16.17402   10.79479   -3.72807
       O    16.54972   11.14519   -2.88061
      H1    15.66168   11.27929   -2.36634
       H     9.98465   12.07135    4.48750
       O    10.19515   11.14712    4.49785
      H1    11.01741   11.28558    4.00924
       H     8.98176   13.96544   -2.42862
       O     9.91788   14.07911   -2.07263
      H1    10.38763   13.93081   -2.91977
       H     9.33045   10.82716   -5.36249
       O     8.66798   11.12825   -4.67707
      H1     8.38863   11.99212   -4.93494
       H     9.20796    9.31527   -1.44169
       O     9.74369    9.38980   -0.62717
      H1    10.11332   10.27714   -0.59272
       H    11.74377   11.65634    2.20438
       O    12.46802   11.24637    2.69417
      H1    12.37593   10.26998    2.63594
       H     9.40327   12.44181    0.94446
       O    10.34464   12.33251    1.02543
      H1    10.62164   13.25849    1.32931
       H     8.18231    9.78637   -3.27835
       O     8.13346    9.03945   -2.69124
      H1     8.72023    8.50470   -3.23552
       H     7.97747    9.95823    0.42783
       O     7.21875    9.65662    0.96116
      H1     6.70464   10.47899    0.98334
       H    11.57939    8.52302   -0.63030
       O    12.51922    8.69397   -0.80290
      H1    12.98262    7.92743   -0.44432
       H     7.17337   15.18107    1.35658
       O     7.23378   15.45127    0.40833
      H1     8.16998   15.83881    0.29546
       H    14.70170   13.17852   -4.56697
       O    15.18581   13.98244   -4.71070
      H1    14.60886   14.44680   -5.36832
       H    16.27446   15.00933   -1.76672
       O    15.29609   15.21210   -1.94808
      H1    15.18358   14.80557   -2.84334
       H    12.82806   13.80999    4.71525
       O    13.44491   14.31929    4.12289
      H1    12.93385   14.39314    3.29244
       H    12.86191   11.91881   -4.47217
       O    13.85332   11.72399   -4.49850
      H1    14.07821   11.33367   -5.37146
       H    12.64734   16.16273   -1.96055
       O    12.78504   16.97963   -2.46066
      H1    12.67038   17.68847   -1.76834

