90
frame 3 | Written by MDAnalysis XYZWriter (release 2.4.3)
       H     6.45687   -4.32128   -4.47177
       O     6.34349   -5.30126   -4.44302
      H1     5.47209   -5.40268   -4.89884
       H     7.88790    1.37242   -3.23024
       O     7.12937    1.96386   -3.07407
      H1     6.45893    1.36712   -3.48208
       H    -0.47494   -1.06102   -0.19520
       O    -1.18056   -1.53872    0.36963
      H1    -1.87455   -0.87018    0.34090
       H     5.20483   -0.70590   -5.90760
       O     5.43016   -0.29835   -6.71765
      H1     6.11390   -0.91377   -7.04313
       H     6.60218    3.69128   -5.52527
       O     6.99184    4.04886   -4.69477
      H1     7.04127    3.20643   -4.18861
       H     6.57788   -4.10587    2.45212
       O     5.84858   -3.96624    1.82512
      H1     6.18847   -3.38532    1.12827
       H     5.96616    1.27033    2.47751
       O     6.92689    1.18339    2.55196
      H1     7.04146    0.73946    3.37975
       H     2.23724   -5.07580   -2.69557
       O     2.45702   -4.19636   -3.03419
      H1     2.99653   -3.85422   -2.25180
       H     4.67662   -3.18264    2.96068
       O     4.01928   -2.71540    3.53085
      H1     3.36251   -3.41818    3.76513
       H     3.68876   -2.78311   -0.60792
       O     3.20440   -3.61737   -0.51183
      H1     3.80922   -4.09336    0.08875
       H     3.66525   -4.26552   -4.59042
       O     3.95825   -4.33389   -5.52228
      H1     3.15477   -4.77305   -5.91642
       H     1.88958   -2.23220   -6.74632
       O     2.83929   -2.09082   -6.79809
      H1     3.20695   -2.93758   -6.43629
       H     6.29411    1.05376   -0.60207
       O     5.85600    1.87997   -0.75826
      H1     6.34269    2.08759   -1.63075
       H     5.15477   -0.80223   -3.76663
       O     5.14763    0.15946   -3.96638
      H1     4.13996    0.27582   -4.12150
       H     8.98941   -4.26091   -1.28226
       O     8.51973   -3.44842   -1.55075
      H1     9.34502   -2.88373   -1.52062
       H     7.47337    3.60028    0.99510
       O     8.01741    3.75208    0.17675
      H1     7.26900    3.56847   -0.45070
       H     1.81126    4.22328   -1.16602
       O     1.20864    4.97593   -1.03685
      H1     1.33859    5.13391   -0.08810
       H     2.39625    2.46187    0.12260
       O     1.82855    1.87127    0.61953
      H1     1.37781    1.33869   -0.10815
       H     6.35718   -2.00173   -0.42153
       O     6.13080   -2.89631   -0.73147
      H1     7.04324   -3.30285   -0.89306
       H     8.56180   -1.41970   -4.33203
       O     8.22742   -2.31964   -4.37550
      H1     8.34226   -2.64576   -3.47630
       H     1.69767   -3.84797    0.12584
       O     0.76832   -4.14128    0.14179
      H1     0.51413   -3.65437    0.95061
       H     1.43328   -1.61666   -4.17923
       O     2.26001   -1.11057   -4.34793
      H1     2.42842   -1.47575   -5.26665
       H     0.76892   -3.11537   -3.47536
       O    -0.06951   -2.67742   -3.71502
      H1    -0.16237   -2.93448   -4.63730
       H     2.81411   -0.60709    2.18648
       O     3.40579   -0.14662    1.57603
      H1     2.81782    0.59849    1.32514
       H     0.82578    0.99137   -4.01169
       O     0.01772    1.05192   -3.56559
      H1    -0.27769    1.91466   -3.86402
       H     3.86602    4.06050   -1.56888
       O     3.43353    3.25813   -1.24996
      H1     4.10650    2.58767   -1.07829
       H     3.54381   -0.48160   -0.13795
       O     3.40788   -0.97771   -1.05586
      H1     4.00708   -0.45785   -1.59618
       H     7.16971   -0.09102    1.04733
       O     7.16195   -0.33208    0.13298
      H1     7.97589    0.21001   -0.09712
       H     0.37966    0.16927   -1.93546
       O     0.79431   -0.05275   -1.05702
      H1     1.47788   -0.74723   -1.17654
       H     4.33169   -0.00360    3.42555
       O     4.31571   -0.15260    4.38843
      H1     4.32716   -1.09647    4.33348

