90
frame 3 | Written by MDAnalysis XYZWriter (release 2.4.3)
       H     9.15860   -8.68201    9.73880
       O     9.57333   -7.89375    9.34662
      H1    10.18378   -7.64832   10.10363
       H     9.60620   -2.33387   13.49065
       O    10.32984   -2.45306   12.84740
      H1    10.93475   -1.85652   13.28119
       H    11.34344   -3.29872   14.60613
       O    11.39025   -3.25302   15.60976
      H1    11.82323   -4.05183   15.96131
       H    10.45271  -10.24831    9.68562
       O    11.04768  -10.51987    8.91272
      H1    10.36293  -10.76339    8.26634
       H    14.12602  -11.69824   13.09081
       O    14.89601  -11.96746   13.51818
      H1    14.45097  -12.34467   14.33965
       H    10.24668   -2.51712   10.82465
       O    10.85716   -2.23166   10.15215
      H1    11.68285   -2.19336   10.60863
       H    12.24854   -7.65922   10.50430
       O    11.58157   -7.61981   11.21382
      H1    11.68333   -6.72616   11.60728
       H    12.28676  -12.03081    8.82946
       O    12.95064  -12.61379    8.41188
      H1    13.54037  -11.93468    7.93418
       H    14.55131   -4.52681    7.80216
       O    15.19569   -5.18295    8.20139
      H1    14.93804   -5.13042    9.11331
       H    15.89625   -4.94174   12.46039
       O    16.03944   -4.50382   11.62478
      H1    16.85887   -3.97232   11.76692
       H    10.00037   -7.92115    5.65622
       O     9.78905   -8.88098    5.72953
      H1    10.73341   -9.10782    5.88870
       H     8.47103   -8.40418   11.96994
       O     7.60121   -7.89789   12.03702
      H1     7.26577   -8.17564   11.21030
       H    12.23379   -9.37773    7.17384
       O    12.50673   -9.34639    6.24218
      H1    12.97548   -8.49728    6.26985
       H     8.45497  -11.28653    7.11943
       O     8.64473  -10.52612    7.72463
      H1     8.85156   -9.79025    7.12904
       H    11.31355   -8.99496   12.46984
       O    11.30416   -9.93160   12.73660
      H1    11.39053   -9.82941   13.69169
       H     7.34056   -5.74228    8.63202
       O     7.55137   -6.59802    8.25379
      H1     8.33402   -7.00192    8.64363
       H     8.00371   -5.77031   14.50457
       O     8.11139   -5.63054   13.55928
      H1     7.92787   -6.49259   13.18514
       H    15.29534   -8.51739    8.41104
       O    15.51618   -7.77986    8.94425
      H1    14.92126   -7.09167    8.50132
       H     7.15623   -3.57121    9.53365
       O     7.91028   -4.12535    9.34199
      H1     8.37095   -3.70612    8.57687
       H    16.43536  -10.17960   11.13086
       O    16.89893   -9.31989   11.24357
      H1    16.44304   -8.66375   10.71427
       H    12.28063   -6.97694    8.36184
       O    12.40979   -7.89476    8.63376
      H1    11.50257   -8.17991    8.69762
       H     9.42906  -10.48838   11.64650
       O     9.05756  -10.01403   10.85800
      H1     8.30651  -10.56930   10.70528
       H    14.07253  -11.10544   10.78188
       O    13.37144  -11.44785   11.42148
      H1    12.75538  -10.73583   11.60803
       H    14.76359   -8.65155   15.06083
       O    13.80356   -8.48959   15.01508
      H1    13.76664   -7.83386   14.29702
       H     9.20749   -9.36238   14.88005
       O     9.38298   -8.46364   14.63908
      H1    10.41191   -8.31779   14.71858
       H    11.00625   -4.36952    7.90207
       O    11.49918   -5.19340    7.75990
      H1    11.69485   -5.12681    6.81152
       H     8.56635   -6.05532    6.96498
       O     8.91663   -6.02019    6.01286
      H1     9.82356   -5.70098    6.16727
       H     9.79904   -5.07829   12.69802
       O    10.71367   -5.08627   12.35922
      H1    10.91311   -4.14223   12.41673
       H    15.31745  -10.73939    7.52899
       O    14.41991  -10.52878    7.67220
      H1    14.01758  -10.23288    6.82560
       H     6.43283   -5.98307   11.70415
       O     5.46994   -6.10507   11.89657
      H1     5.57285   -6.66116   12.64205

