90
frame 3 | Written by MDAnalysis XYZWriter (release 2.4.3)
       H   -11.71408    9.13911  -10.54319
       O   -11.04693    8.44079  -10.46579
      H1   -10.49031    8.71482   -9.72656
       H   -18.27201   11.47028   -7.25623
       O   -17.78723   11.67042   -8.06334
      H1   -17.60862   12.61922   -7.89936
       H   -12.77106    5.07489   -8.55210
       O   -13.40653    5.29355   -7.84229
      H1   -13.78146    4.37663   -7.76916
       H   -12.50992   10.80113  -12.21953
       O   -12.85095   10.49304  -11.36979
      H1   -13.11581   11.34122  -11.00778
       H   -13.23823    6.74245   -5.09198
       O   -13.21919    5.77851   -5.06828
      H1   -13.28658    5.71623   -6.08133
       H   -15.01778   10.26510   -8.59766
       O   -15.08811   11.17006   -8.19882
      H1   -15.97383   11.42127   -8.24080
       H   -16.22408    7.47183   -8.98334
       O   -17.00679    7.28526   -8.49004
      H1   -17.66890    7.53553   -9.13902
       H   -12.06554    9.66605   -6.60229
       O   -11.86086    9.28034   -5.75001
      H1   -11.05518    9.76020   -5.46636
       H   -16.63810   10.36533   -2.49806
       O   -15.89371    9.95038   -2.01420
      H1   -15.30046    9.72237   -2.71449
       H   -15.39360   11.71361  -14.99455
       O   -16.19864   11.67296  -14.43940
      H1   -15.85607   12.01320  -13.57483
       H   -17.25138    3.78443   -7.53060
       O   -18.05362    4.35052   -7.75743
      H1   -17.63270    5.10655   -8.25201
       H   -16.43305    7.52822   -6.90345
       O   -16.31213    7.80354   -5.95994
      H1   -17.23633    7.87376   -5.63280
       H    -9.72257   13.65428  -10.14543
       O   -10.39704   12.96889   -9.88848
      H1   -10.35423   13.04282   -8.90313
       H   -18.88733   11.03806   -2.72212
       O   -18.20183   10.75689   -3.35985
      H1   -18.61931   10.99187   -4.22345
       H   -19.35409    6.73510  -10.45230
       O   -19.10848    7.63319  -10.47053
      H1   -19.81664    8.07687   -9.97392
       H   -16.38183   15.05857   -7.50917
       O   -17.11642   14.45675   -7.61696
      H1   -17.78928   14.93868   -8.10727
       H   -12.35363    7.21609  -12.46903
       O   -12.93739    6.64279  -12.99130
      H1   -12.41767    6.63189  -13.82593
       H   -19.77883   11.61578   -6.45918
       O   -19.16051   11.08766   -5.88720
      H1   -19.68174   10.29601   -5.95408
       H   -10.43128   10.23735   -8.62032
       O    -9.61744    9.66146   -8.54728
      H1    -9.05696   10.22118   -9.11648
       H   -13.49661   13.06174   -9.41334
       O   -13.02785   12.92314  -10.27661
      H1   -12.06630   13.07036  -10.06475
       H   -14.92859   11.38963   -6.47078
       O   -14.99607   11.55255   -5.48561
      H1   -15.24209   10.68774   -5.12258
       H   -12.31989   13.64054   -6.61989
       O   -12.07566   13.59684   -7.59867
      H1   -11.12795   13.79802   -7.54991
       H   -18.60011   14.54451  -12.53759
       O   -18.23288   14.69303  -11.64246
      H1   -17.89587   13.82657  -11.43443
       H   -17.85008    9.68820  -10.68281
       O   -17.18460   10.27129  -10.30985
      H1   -17.64554   10.56483   -9.50905
       H   -16.51175   11.53097  -11.15620
       O   -16.25661   12.37002  -11.58188
      H1   -15.40753   12.47366  -11.13950
       H   -13.48228    9.05230   -4.67917
       O   -14.28638    8.66015   -4.26240
      H1   -14.85170    8.30189   -4.92095
       H   -12.32156   11.56963   -8.03771
       O   -12.08277   10.71109   -8.42066
      H1   -12.35146   10.85057   -9.31761
       H   -17.26886   12.68515   -3.70383
       O   -16.47030   13.14802   -3.58430
      H1   -15.89615   12.86511   -4.34803
       H   -15.70996    9.27915  -10.62508
       O   -14.98358    8.66647  -10.46820
      H1   -14.27342    8.97252  -11.11216
       H   -13.50963   14.09032   -4.79482
       O   -13.07769   13.28107   -5.06407
      H1   -13.76253   12.57898   -5.18680

