90
frame 3 | Written by MDAnalysis XYZWriter (release 2.4.3)
       H     3.83206  -11.43756   17.46538
       O     3.95497  -10.44311   17.33207
      H1     3.76741  -10.16773   18.30945
       H    -0.47483  -12.89303   17.83235
       O     0.45082  -12.53892   17.75877
      H1     0.38834  -11.68216   17.31258
       H     4.38807  -10.55305   11.52631
       O     3.59387  -10.06150   11.58942
      H1     2.93161  -10.67338   11.93595
       H    -1.20650   -8.36511   16.06140
       O    -1.37680   -7.43105   16.35605
      H1    -1.20123   -6.91483   15.55143
       H     1.13727   -9.98016    9.75968
       O     0.67777   -9.24101   10.18705
      H1     0.02009   -9.69293   10.67293
       H    -5.83967  -14.35945   12.65073
       O    -5.41934  -14.74533   13.48559
      H1    -6.02783  -15.44530   13.67482
       H    -6.09411   -9.44888   12.21717
       O    -5.82040   -9.94864   12.94086
      H1    -5.01744   -9.56364   13.33635
       H    -3.44403   -8.39419   16.44131
       O    -3.99314   -9.15975   16.70984
      H1    -4.89568   -8.84642   16.40979
       H    -4.46415  -13.11727   16.13530
       O    -3.85429  -13.23056   15.37866
      H1    -4.56056  -13.31918   14.67710
       H     0.37625   -7.03601   17.07377
       O     1.21004   -7.20333   17.40623
      H1     1.57017   -7.90195   16.77375
       H    -2.32177  -11.23557   12.24998
       O    -2.65747  -11.34857   11.36469
      H1    -3.09366  -10.49257   11.28899
       H    -5.44129  -13.51426   17.44864
       O    -4.99963  -12.71499   17.84447
      H1    -4.24189  -13.03130   18.34629
       H     1.49209  -16.78368   16.55897
       O     1.00878  -16.04951   16.99624
      H1     0.10298  -16.39796   17.04404
       H    -1.59106  -14.05529   10.42759
       O    -1.85182  -13.29613    9.87503
      H1    -2.20476  -12.67513   10.52851
       H     3.58245  -13.63011   18.36626
       O     3.21227  -13.23787   17.55708
      H1     2.38442  -12.82908   17.82503
       H    -1.89519  -14.55973   19.03617
       O    -1.91612  -13.87200   18.32346
      H1    -2.16760  -14.56726   17.59319
       H     2.24529  -12.08532   14.12580
       O     2.95841  -12.10001   14.75725
      H1     2.95141  -12.94635   15.13264
       H    -4.20579  -16.45233   16.47280
       O    -3.46796  -15.90275   16.20571
      H1    -3.96128  -15.17198   15.83796
       H     2.79483   -9.87703   15.44693
       O     2.26992   -9.08385   15.34736
      H1     2.78742   -8.44903   14.77635
       H     0.68983  -14.47806   15.69461
       O     0.42127  -13.85991   14.98139
      H1     0.15889  -14.42094   14.21290
       H     2.26484  -12.66401   12.38627
       O     1.60041  -12.01419   12.32456
      H1     1.00565  -12.52184   11.68751
       H    -3.06651   -9.61244   19.43760
       O    -3.70157  -10.36908   19.36637
      H1    -3.84815  -10.32910   18.38817
       H    -3.70872  -15.24842   13.61378
       O    -2.81156  -15.56128   13.65024
      H1    -2.86013  -15.71564   14.57501
       H    -2.28172  -12.22163   14.99077
       O    -1.54960  -11.83521   14.43960
      H1    -0.76323  -12.32827   14.55374
       H    -2.73344   -8.22776   12.84897
       O    -3.43258   -8.57142   13.44635
      H1    -3.04565   -8.41462   14.35020
       H    -0.85778  -10.64382   15.59588
       O    -0.34870  -10.07239   16.14546
      H1     0.42267  -10.00646   15.60520
       H    -0.44513  -12.42342    9.23777
       O     0.20271  -11.85882    8.75180
      H1     0.42174  -12.42324    7.99630
       H    -3.50024  -16.93416   12.82891
       O    -3.46401  -17.89961   12.49952
      H1    -4.44003  -18.04895   12.21398
       H     4.60179  -11.85495   15.06658
       O     5.60011  -11.87542   14.91660
      H1     5.96766  -11.16584   15.45163
       H    -1.44466  -14.85115   12.92853
       O    -0.51237  -14.59283   12.58729
      H1    -0.42097  -15.22442   11.85270

