90
frame 0 | Written by MDAnalysis XYZWriter (release 2.4.3)
       H     8.30774   10.06489    2.27736
       O     7.88819   10.03873    3.17162
      H1     8.69219   10.15711    3.72002
       H    16.20109    5.48584    4.92908
       O    15.27962    5.71640    5.12560
      H1    14.76526    5.31896    4.46540
       H    14.65197    9.90626    5.02408
       O    14.96273   10.60526    4.46834
      H1    14.10768   11.04270    4.27406
       H    17.44115   11.17071    2.23834
       O    16.70419   10.66185    2.00506
      H1    16.40317   10.40287    2.86332
       H    18.02663    8.96376    6.64373
       O    17.31434    9.41276    6.09848
      H1    16.53983    8.77452    6.20660
       H    12.11617    8.69780    7.76960
       O    11.54322    8.34338    8.44627
      H1    11.11991    7.57378    8.09452
       H    14.29035    4.23470    6.77103
       O    14.28964    3.59663    7.49897
      H1    13.58384    4.03719    8.03339
       H    13.30857    8.78771    9.82762
       O    13.02098    8.87002   10.73247
      H1    12.17715    8.29802   10.72333
       H    12.35097    6.64579    8.63571
       O    13.14337    6.06177    8.65993
      H1    13.68728    6.44483    9.42686
       H    13.95562    3.60492    2.61816
       O    13.78335    4.55906    2.93633
      H1    12.95884    4.38656    3.38402
       H    12.32754    8.35807    2.13032
       O    13.22018    8.72836    1.95176
      H1    13.17805    8.75568    1.00238
       H    11.62952    4.97435    4.84509
       O    11.60257    4.23424    4.21854
      H1    11.73088    3.40977    4.75293
       H     9.36501    5.67857    7.70750
       O    10.19799    5.51061    7.29102
      H1    10.61318    4.90874    7.88610
       H    10.08257   11.25880    5.20046
       O    10.08731   10.30072    5.07977
      H1    10.92456   10.23902    4.58245
       H     7.95882    8.44958    3.59434
       O     8.24153    7.53417    3.87189
      H1     7.73371    6.97546    3.20559
       H    14.10469    5.68292    1.59391
       O    14.45093    6.39896    1.07918
      H1    14.01905    7.15071    1.47003
       H    13.16553    8.12919    5.64391
       O    13.58773    8.71370    6.27920
      H1    14.05420    8.09408    6.80490
       H    10.55298    7.06361    2.39620
       O    10.59760    7.98893    2.76731
      H1     9.68040    7.93363    3.04664
       H    11.48538   11.60734    2.67310
       O    12.28053   11.18691    3.09939
      H1    12.51503   10.55329    2.39438
       H    11.33257    4.87812    2.35861
       O    11.23734    5.54941    1.64361
      H1    11.71858    5.00370    0.98728
       H    15.27574    6.70955    6.54410
       O    15.63570    7.23589    7.33680
      H1    15.19214    6.78504    8.03851
       H    11.06905    6.59019    5.82618
       O    11.74984    6.61035    5.14403
      H1    11.22383    7.01503    4.35535
       H    14.71748   11.25721    7.72689
       O    13.89090   10.90640    8.16460
      H1    13.63123   10.27744    7.49562
       H    13.66176   12.69683    7.77619
       O    13.50839   13.55032    7.40132
      H1    14.12992   14.13233    7.86790
       H    13.65606   13.81922    5.68936
       O    13.29252   13.87220    4.73220
      H1    12.68624   13.13192    4.80251
       H    16.70874   10.90321    6.92097
       O    16.36746   11.66535    7.42115
      H1    17.11068   12.28388    7.18811
       H     8.71184    5.86440    4.79996
       O     8.50198    4.91798    4.64083
      H1     8.33067    4.84735    3.73580
       H     9.39989    9.71974    6.62180
       O     8.84606    9.59490    7.46942
      H1     9.28871   10.27813    7.96583
       H    17.81303    6.15943    8.68116
       O    18.19108    6.29133    7.77555
      H1    17.42630    6.59919    7.37567
       H    18.18944    8.36182    4.52328
       O    18.38015    7.98627    3.69041
      H1    18.85724    8.70983    3.31084

