90
frame 3 | Written by MDAnalysis XYZWriter (release 2.4.3)
       H    17.01706   -6.91649  -17.05315
       O    16.06612   -6.90550  -17.28497
      H1    15.80079   -7.82627  -17.26741
       H    14.49801   -9.14276  -13.58446
       O    14.36092   -9.40233  -14.48872
      H1    13.94865   -8.71170  -15.00429
       H    10.52257   -6.77244  -17.75336
       O    11.20255   -6.91235  -18.41356
      H1    10.74011   -7.01363  -19.25143
       H    12.07346  -12.42248  -20.15290
       O    11.82248  -11.66186  -19.57125
      H1    12.09400  -12.00803  -18.71608
       H    11.86824   -2.58319  -14.87137
       O    11.58895   -3.30778  -14.30863
      H1    11.71411   -4.00118  -14.96033
       H    11.21280  -13.63552  -15.63710
       O    11.99737  -14.12076  -15.82672
      H1    12.32637  -14.31231  -14.91710
       H    11.98818   -7.85779  -17.27010
       O    12.28914   -8.02875  -16.33235
      H1    11.99874   -8.99374  -16.33226
       H    10.03151   -9.13705  -14.19581
       O     9.24432   -8.86820  -14.69508
      H1     9.48922   -7.93689  -14.84507
       H    11.03485   -6.65078  -15.50770
       O    10.07370   -6.51442  -15.45914
      H1     9.89439   -6.12591  -14.59799
       H    15.39524   -3.32875  -16.64797
       O    15.69326   -2.60278  -17.19834
      H1    16.58867   -2.43513  -16.84053
       H     8.83383   -9.33134  -16.76266
       O     9.13446   -9.98339  -17.48348
      H1     8.26838  -10.46755  -17.63876
       H    14.20627   -9.86728  -18.68534
       O    14.94107   -9.36719  -18.33141
      H1    15.26149   -9.96819  -17.57881
       H    12.48330   -3.86169  -17.10294
       O    12.52518   -4.71817  -16.67790
      H1    12.42659   -5.26171  -17.50142
       H     9.49399   -4.94578  -15.93844
       O     8.97430   -4.29171  -16.41932
      H1     8.09004   -4.27072  -15.99496
       H     6.33180   -8.36691  -13.12418
       O     7.20785   -8.76098  -12.78819
      H1     7.72203   -8.74819  -13.66230
       H    14.98266   -5.54984  -13.91535
       O    15.40724   -6.03523  -13.15626
      H1    16.27556   -5.59473  -13.20623
       H     9.19815  -12.16351  -16.29456
       O     8.97246  -12.80186  -15.59719
      H1     8.15553  -12.46691  -15.25885
       H    14.05889   -5.08194  -16.13100
       O    14.86177   -4.87500  -15.60655
      H1    15.41833   -5.63718  -15.81751
       H    15.53080  -10.25063  -15.43538
       O    15.94985  -10.77069  -16.19420
      H1    16.90064  -10.55637  -15.97598
       H    12.47878  -10.81247  -16.58909
       O    11.57974  -10.65365  -16.23380
      H1    11.05725  -10.66307  -17.05069
       H     9.32786   -5.94047  -12.22097
       O    10.24123   -5.90326  -12.63023
      H1    10.58014   -6.81740  -12.62475
       H     7.83554   -5.64865  -18.39726
       O     8.47289   -5.12453  -18.96015
      H1     8.86860   -4.53635  -18.29845
       H    17.42121   -7.83031  -13.58802
       O    17.63285   -8.13793  -14.50877
      H1    18.56829   -8.38723  -14.28039
       H    10.34029  -11.68700  -13.50750
       O    10.92008  -10.92239  -13.58902
      H1    11.04300  -10.82971  -14.55826
       H    15.31228   -9.63701  -10.72351
       O    14.63461   -9.42377  -11.38579
      H1    13.89988   -9.90880  -10.94236
       H    13.14584  -12.89742  -16.71334
       O    13.51561  -12.16967  -17.26217
      H1    14.07960  -12.60384  -17.95549
       H    14.53652   -6.47004  -11.83754
       O    14.19983   -6.52624  -10.89674
      H1    14.42772   -7.37841  -10.49182
       H    12.56457   -7.36290  -11.72651
       O    12.01886   -7.93811  -12.31886
      H1    12.29125   -8.80764  -11.93530
       H    13.46517   -6.70175  -19.26259
       O    13.87658   -5.92472  -18.90721
      H1    14.61526   -6.37303  -18.33133
       H    16.63271  -13.38406  -14.81645
       O    15.71308  -13.43638  -15.08463
      H1    15.49596  -12.55786  -15.38534

