90
frame 3 | Written by MDAnalysis XYZWriter (release 2.4.3)
       H     8.32565    9.73503    2.42663
       O     8.65941    9.32346    3.25477
      H1     9.42559    9.85177    3.59599
       H     7.47299   16.31821    2.84013
       O     7.05012   15.44926    3.05131
      H1     7.83139   14.95741    3.47486
       H     4.73364    8.43084   -3.43726
       O     4.47421    7.72798   -4.07163
      H1     3.80459    8.17914   -4.67037
       H     7.01267   14.20093   -1.87116
       O     7.24717   13.27737   -2.09099
      H1     6.77811   12.97550   -2.91586
       H     7.71365   13.39477    0.69866
       O     7.68422   12.44329    1.00045
      H1     7.38948   12.58421    1.94097
       H     3.26730   14.79693    1.23219
       O     3.54298   13.97681    1.71175
      H1     3.68435   14.33413    2.63161
       H     1.03697   10.84444    1.39846
       O     1.49859   10.34842    2.13882
      H1     1.18671    9.43755    2.07555
       H     3.87602   12.47023   -2.44363
       O     3.45869   13.21716   -2.88310
      H1     2.86317   12.69764   -3.47991
       H    11.39787   12.07933   -2.32287
       O    11.75823   11.96745   -1.39300
      H1    11.03220   12.29911   -0.89091
       H     6.01844    5.28419    1.18355
       O     6.18974    5.40310    2.14818
      H1     5.48343    4.90804    2.62149
       H     5.14824   11.57943    0.24130
       O     4.95466   11.81511   -0.70070
      H1     5.80611   12.23901   -1.01236
       H     4.39784   10.89532    2.44318
       O     5.00473   11.44982    1.95526
      H1     4.54212   12.27752    1.82100
       H     8.26765   13.63866    5.12185
       O     8.94780   13.76841    4.39100
      H1     9.58599   14.34474    4.88351
       H     4.92527    5.98567   -2.72593
       O     4.66505    5.77071   -1.81821
      H1     5.48157    5.99744   -1.38809
       H     6.83230    7.81398    0.20646
       O     6.77915    7.01284   -0.35981
      H1     7.66637    6.67851   -0.24822
       H     9.98465   12.07135    4.48750
       O    10.19515   11.14712    4.49785
      H1    11.01741   11.28558    4.00924
       H     7.76049    7.63747    4.24174
       O     7.67067    6.71456    4.20486
      H1     6.79399    6.65889    3.78294
       H    10.30114    6.67343    1.75267
       O    10.42485    7.03524    2.61579
      H1     9.66147    7.53637    2.81601
       H     9.20796    9.31527   -1.44169
       O     9.74369    9.38980   -0.62717
      H1    10.11332   10.27714   -0.59272
       H    11.74377   11.65634    2.20438
       O    12.46802   11.24637    2.69417
      H1    12.37593   10.26998    2.63594
       H     7.81771   12.50560    7.03529
       O     7.03449   12.69679    6.54193
      H1     7.15637   12.22874    5.73501
       H     4.72059   10.49401    6.27269
       O     5.07606    9.64986    5.98372
      H1     6.01322    9.65530    6.25098
       H     4.39455    9.21466    4.30487
       O     4.12188    9.30571    3.41401
      H1     4.73588    8.83693    2.87149
       H     9.40327   12.44181    0.94446
       O    10.34464   12.33251    1.02543
      H1    10.62164   13.25849    1.32931
       H     8.18231    9.78637   -3.27835
       O     8.13346    9.03945   -2.69124
      H1     8.72023    8.50470   -3.23552
       H     6.08406    9.16447   -2.07494
       O     5.15276    9.44899   -2.04155
      H1     5.18653   10.30074   -1.55438
       H     7.97747    9.95823    0.42783
       O     7.21875    9.65662    0.96116
      H1     6.70464   10.47899    0.98334
       H     3.75370    8.28734   -0.97954
       O     3.02513    7.65645   -0.82605
      H1     3.64964    6.86272   -1.02966
       H     7.17337   15.18107    1.35658
       O     7.23378   15.45127    0.40833
      H1     8.16998   15.83881    0.29546
       H     6.23181   11.29325    3.33356
       O     7.09528   11.62193    3.60522
      H1     7.58367   10.80522    3.53612

