90
frame 3 | Written by MDAnalysis XYZWriter (release 2.4.3)
       H   -15.41608   -4.21119   -3.36495
       O   -15.39461   -3.47999   -2.74975
      H1   -14.95644   -3.91545   -1.98044
       H   -12.75553   -7.56480   -1.57958
       O   -12.44113   -8.46569   -1.35344
      H1   -11.52569   -8.40783   -1.59972
       H   -16.77919   -6.56940    0.76367
       O   -16.29836   -6.11447    1.44228
      H1   -15.80694   -6.88328    1.84198
       H   -11.29494   -2.69403   -0.19339
       O   -11.39076   -1.75925   -0.39657
      H1   -10.52673   -1.37843   -0.10516
       H    -8.12047   -8.43410    2.56585
       O    -8.57063   -9.14500    2.94746
      H1    -8.85772   -8.68269    3.71996
       H   -12.77413   -4.45838    0.03213
       O   -11.87871   -4.57343   -0.29366
      H1   -11.54028   -5.07278    0.48102
       H   -13.10131   -6.95547    4.53289
       O   -13.27796   -6.13763    3.98229
      H1   -14.24367   -6.07367    4.14726
       H    -7.28621   -6.59014   -0.72994
       O    -8.17325   -6.77243   -0.34335
      H1    -8.18615   -6.00798    0.29436
       H   -12.92038   -9.62451   -0.33275
       O   -13.27434  -10.34707    0.21772
      H1   -13.04038  -11.06628   -0.40523
       H    -8.83246   -2.58422    3.43626
       O    -8.23800   -1.88048    3.20481
      H1    -7.36158   -2.29368    3.17376
       H   -12.61595    1.20036    0.85635
       O   -12.73231    0.25502    1.02255
      H1   -12.38138   -0.13578    0.22256
       H    -9.48541   -1.28495    1.52239
       O    -9.17975   -0.61672    0.86714
      H1    -8.22836   -0.92767    0.76416
       H   -15.58745   -8.60818    2.97550
       O   -15.07700   -8.66477    2.14000
      H1   -15.22828   -9.65749    2.06338
       H    -7.18422   -2.71219    0.62975
       O    -6.61212   -1.97119    0.47391
      H1    -6.26072   -2.34532   -0.34591
       H   -10.96534   -2.33541   -3.53353
       O   -10.23581   -1.93708   -4.06550
      H1    -9.38685   -2.22438   -3.71066
       H   -15.28917   -4.54662    0.35256
       O   -14.44844   -3.95894    0.27835
      H1   -14.87283   -3.13978    0.47287
       H    -9.40248   -8.36278   -1.60653
       O    -9.86689   -9.01634   -2.16970
      H1   -10.02641   -8.55322   -3.04672
       H   -14.40628   -0.70918    1.56651
       O   -15.10201   -1.35437    1.61655
      H1   -14.72936   -1.86696    2.38528
       H   -10.16026   -4.58601   -1.72047
       O    -9.43244   -5.04347   -2.13001
      H1    -9.05485   -5.49079   -1.36026
       H    -6.88295   -4.70158    1.68235
       O    -7.79954   -4.64222    1.30843
      H1    -8.35439   -4.80041    2.03702
       H   -10.49426   -8.90039    2.19430
       O   -11.39124   -8.62842    2.03719
      H1   -11.61526   -8.98710    1.16402
       H   -13.75514   -4.13388    5.95890
       O   -13.22534   -4.86515    6.20590
      H1   -13.10054   -5.23372    5.32989
       H    -7.52282   -8.36769    0.11015
       O    -7.59777   -9.34007    0.11793
      H1    -6.68902   -9.57028    0.21138
       H   -12.17807   -2.44251    2.80579
       O   -11.46697   -1.71601    2.75370
      H1   -11.86024   -1.14070    2.10445
       H   -11.44952   -6.92353    1.72747
       O   -11.59334   -5.99672    1.92520
      H1   -12.25676   -6.12577    2.63105
       H   -13.87078   -5.75822   -3.23048
       O   -13.42680   -6.18713   -2.44879
      H1   -12.98722   -5.37689   -2.12528
       H   -14.20328   -2.90437    4.01912
       O   -13.82391   -3.07471    3.13072
      H1   -14.15320   -3.89426    2.86652
       H    -8.22169   -5.50272   -3.43749
       O    -7.69967   -5.63214   -4.25418
      H1    -8.05887   -4.96596   -4.89187
       H    -9.97821   -5.59423    3.22572
       O    -9.22246   -5.41848    3.79505
      H1    -9.20558   -6.32449    4.20053
       H   -12.29525   -2.88059   -1.93918
       O   -12.47023   -3.00642   -2.83872
      H1   -13.42908   -2.79413   -2.86402

