90
frame 7 | Written by MDAnalysis XYZWriter (release 2.4.3)
       H     7.06583    0.12387    2.49690
       O     7.08838   -0.67320    3.03890
      H1     6.95821   -1.41374    2.42150
       H    11.99162   -6.28278    9.80214
       O    11.02256   -6.21867    9.93675
      H1    10.84088   -5.41250   10.42716
       H    13.89632   -7.42556    3.67547
       O    13.79050   -6.83007    4.41586
      H1    14.62290   -6.75300    4.85931
       H    14.28055   -5.88472   10.39737
       O    13.79289   -6.01844    9.56981
      H1    13.84178   -5.19669    9.02047
       H     9.34949   -4.03157    4.13660
       O    10.30184   -3.96518    4.03031
      H1    10.42506   -4.37730    3.19998
       H    11.21640   -2.93547    5.69268
       O    11.12255   -2.49930    6.51914
      H1    12.00178   -2.05812    6.58923
       H    12.48769    2.48763    5.47336
       O    12.00711    3.25184    5.86228
      H1    11.06592    2.85602    5.93252
       H     9.57875   -2.24195    4.25129
       O     9.57224   -1.22713    4.14151
      H1     8.64292   -1.03112    3.85288
       H    15.55799   -1.17155    8.37912
       O    16.17082   -1.04446    9.06869
      H1    17.05951   -1.13769    8.68915
       H    14.18104   -4.58780    4.24944
       O    14.24263   -3.81891    4.82775
      H1    15.20622   -3.61900    4.75047
       H     9.96766   -7.49530    4.41712
       O     9.17621   -7.38211    3.87749
      H1     9.47756   -7.25541    2.99379
       H    10.06990   -1.89275    2.31354
       O    10.39452   -2.17197    1.42322
      H1    10.65311   -3.07824    1.51142
       H    13.42972   -0.56526    7.96905
       O    13.66988   -1.16364    7.23409
      H1    14.39878   -0.79523    6.71997
       H    15.78570   -4.00995    8.35275
       O    16.60264   -4.46754    8.57625
      H1    17.09259   -3.87811    9.16645
       H    13.27410   -3.12562    7.91731
       O    13.61326   -3.99238    7.66581
      H1    13.58253   -4.02428    6.68200
       H    11.99335   -5.12673    0.48941
       O    11.27618   -4.95149    1.08957
      H1    10.84627   -5.83775    1.10516
       H     7.11647   -5.18151    3.47566
       O     7.71716   -5.07784    4.23482
      H1     8.31860   -5.78798    4.26008
       H    13.91372   -1.37254    3.84965
       O    14.18626   -0.46109    3.72715
      H1    13.35107    0.04652    3.65280
       H    10.90495   -6.50043    6.19466
       O    11.34781   -7.13947    5.56584
      H1    12.13878   -6.80180    5.15671
       H     8.51235   -1.06416    8.69855
       O     8.26541   -0.67628    9.55205
      H1     8.06119   -1.44499   10.10088
       H     9.96085   -0.77493    6.70640
       O     9.10878   -0.39535    6.75593
      H1     8.68599   -0.85735    6.01297
       H     6.84786   -2.10870    5.88501
       O     6.46126   -1.27283    5.54115
      H1     6.29630   -1.29512    4.58631
       H    16.57153    0.36055    6.24707
       O    15.94155   -0.18788    5.79333
      H1    15.57630    0.33489    5.04334
       H    10.74576   -4.60155    7.37764
       O    10.10157   -5.33821    7.23220
      H1    10.06711   -5.81633    8.06618
       H     8.65847   -4.10698    7.00140
       O     7.95821   -3.52304    6.59325
      H1     7.41102   -4.19442    6.14042
       H    11.00913   -0.02086    3.94987
       O    11.77467    0.54167    3.72838
      H1    11.57937    1.01939    2.89411
       H    12.48635   -2.95406   10.46377
       O    13.01226   -2.19344   10.21032
      H1    13.88184   -2.32008   10.65089
       H    12.56546    1.61355    9.07607
       O    13.09340    0.83665    9.37580
      H1    12.39777    0.31882    9.88980
       H     9.63183   -3.46392   10.68801
       O    10.58218   -3.66545   10.73967
      H1    10.85782   -3.55562   11.64911
       H     9.39639    1.28316    6.05433
       O     9.56883    2.20574    5.86718
      H1     8.91723    2.47702    5.15098

