90
frame 3 | Written by MDAnalysis XYZWriter (release 2.4.3)
       H     6.22426    4.59219   17.47932
       O     5.89776    5.51725   17.35376
      H1     5.57603    5.71572   18.22209
       H    10.78754    1.24373   20.02072
       O    10.32880    1.59313   19.24801
      H1    11.08441    1.76657   18.60885
       H     7.30035    1.56313   13.55678
       O     8.26413    1.52476   13.51115
      H1     8.39870    1.96285   12.66272
       H     2.64733   -0.26055   14.78946
       O     3.38913    0.39641   14.69405
      H1     2.95103    1.23751   15.05862
       H     6.64461    2.00991   18.63977
       O     6.48312    1.47980   19.46869
      H1     7.11631    1.89267   20.10650
       H    12.96815   -0.32208   17.36992
       O    12.23720   -0.13670   16.81290
      H1    11.41509   -0.53728   17.13888
       H     9.02743   -2.87551   15.97514
       O     8.33494   -3.48914   16.28286
      H1     8.88295   -4.31392   16.61685
       H     2.39560   -1.51298   17.92903
       O     1.79384   -2.18866   17.70487
      H1     2.01368   -2.90387   18.32399
       H    10.24693   -1.81581   20.01424
       O    10.25672   -2.21567   19.11028
      H1    11.13722   -2.66213   19.05403
       H     5.69466   -4.55871   17.65640
       O     5.19775   -5.09817   17.07324
      H1     4.96586   -4.50206   16.34873
       H     4.66870    4.82889   14.64455
       O     4.04416    4.91573   15.42573
      H1     4.73363    5.17166   16.04930
       H     4.12648    0.74500   18.01376
       O     3.60573    0.04087   18.40412
      H1     4.18990   -0.33992   19.10463
       H     7.34553   -3.20720   17.95638
       O     7.04217   -3.30355   18.87642
      H1     7.66849   -3.93761   19.33003
       H    11.84830   -0.60663   15.13650
       O    11.77777   -0.58155   14.17383
      H1    10.91783   -0.15357   14.08639
       H     7.27052    2.48388   16.55654
       O     7.24826    3.11792   17.28244
      H1     8.13054    3.08059   17.61092
       H     1.66642    0.30728   18.59872
       O     0.65996    0.39563   18.60319
      H1     0.52801    1.32557   18.81156
       H     3.24749    2.73433   17.31996
       O     3.84750    2.22358   16.72339
      H1     4.01509    2.97984   16.13791
       H    11.39093    5.32312   15.21007
       O    10.75691    4.66610   15.50731
      H1     9.94848    5.14744   15.66834
       H    11.35067    3.91482   18.05422
       O    12.11642    3.48179   17.53465
      H1    11.85836    3.86571   16.63485
       H     5.55491    0.64135   15.93627
       O     6.48128    0.89010   15.74069
      H1     6.90089    0.06324   15.95918
       H     7.23680    4.69662   14.09061
       O     6.39892    4.70575   13.60789
      H1     6.47607    5.61044   13.20909
       H     5.06796    9.53561   19.04618
       O     5.10656    8.85143   19.76046
      H1     6.05547    8.66939   19.88661
       H     9.40935    4.86883   19.42586
       O     8.77489    4.09953   19.53724
      H1     9.46469    3.39947   19.57694
       H     9.56107    0.42075   18.22449
       O     9.44653   -0.20265   17.50227
      H1     9.76027   -0.98651   18.03441
       H     3.46562   -2.65235   15.81211
       O     3.74396   -3.50628   15.42343
      H1     4.50775   -3.22937   14.91009
       H     9.00569   -0.56006   15.71123
       O     8.66107   -1.10335   15.00285
      H1     8.35062   -0.41592   14.38571
       H     8.33292    6.85154   15.50558
       O     8.16710    5.96744   15.80681
      H1     7.55378    5.99923   16.54296
       H     2.61934    2.78396   19.27006
       O     2.24148    3.47094   18.66331
      H1     2.62406    4.30629   19.05737
       H    10.28641    8.58470   19.07449
       O     9.95029    8.94165   18.24448
      H1     9.87759    8.19085   17.69354
       H    11.40573    5.88072   20.00249
       O    11.01259    5.89560   19.11669
      H1    11.91959    5.98067   18.66477

