90
frame 6 | Written by MDAnalysis XYZWriter (release 2.4.3)
       H     3.02986   11.88771   -6.30113
       O     3.94756   12.06787   -6.47967
      H1     4.11436   12.91955   -6.98108
       H    -0.52863    9.04429   -5.36249
       O    -0.42048    8.31013   -5.99573
      H1    -1.23325    8.44820   -6.54429
       H     1.39056   12.00598  -12.83541
       O     1.25248   11.83216  -11.87584
      H1     0.32037   11.60001  -11.80150
       H     3.79944    5.76317   -5.32755
       O     3.36344    6.59778   -5.35716
      H1     3.15162    6.70134   -6.29641
       H     1.22344    9.02825  -10.05639
       O     0.84623    8.15448  -10.21060
      H1     0.75478    7.85511   -9.27938
       H     3.99605    9.85035  -11.59336
       O     4.84458    9.76925  -11.14988
      H1     5.39755   10.38070  -11.70034
       H     0.95539   14.63585   -7.21769
       O     0.33753   14.30695   -7.87041
      H1     0.62642   13.39335   -7.97853
       H    -0.06225    5.67846   -7.90400
       O     0.17267    6.58446   -8.02804
      H1     0.17789    7.01694   -7.17962
       H     0.98567    6.15006  -11.21399
       O     1.67054    5.61287  -11.56781
      H1     1.60731    5.60233  -12.52577
       H     1.12327   12.31880   -4.64899
       O     1.36134   12.26357   -5.56722
      H1     0.63172   11.95986   -6.09327
       H     3.13699   16.44329   -8.36229
       O     3.26914   15.83528   -9.12216
      H1     3.72204   14.96543   -8.87539
       H    -2.14972   11.61976  -10.07307
       O    -1.50614   11.50980  -10.76887
      H1    -1.69398   12.11806  -11.52081
       H    -0.40322   10.38608   -7.03758
       O    -0.21951   11.06578   -7.69847
      H1     0.61797   10.92191   -8.14827
       H     5.28903   14.36957  -10.82272
       O     5.33149   13.39506  -10.58839
      H1     4.43723   13.21891  -10.29642
       H    -1.81521    6.97310   -9.14047
       O    -2.50676    7.48375   -9.53435
      H1    -2.41508    8.26990   -9.06243
       H    -2.17332   10.38852   -7.44056
       O    -2.50640    9.49170   -7.21487
      H1    -3.28107    9.58066   -6.70623
       H     6.34615    6.27071   -7.58654
       O     6.42461    6.78357   -8.37513
      H1     5.80554    7.56088   -8.30158
       H     6.38819    9.72349   -6.42128
       O     6.36358   10.68258   -6.48463
      H1     5.36187   10.89457   -6.40769
       H     7.51440   11.75652  -12.05530
       O     6.58283   11.56020  -12.16488
      H1     6.14150   12.32384  -11.73885
       H     1.81746   12.94753  -10.77079
       O     2.42559   13.23785  -10.08274
      H1     2.17896   14.12933   -9.84862
       H     4.99355    9.17514   -9.44305
       O     4.69911    8.91044   -8.55330
      H1     4.00489    8.24283   -8.74657
       H     4.92014   15.34654   -7.98893
       O     5.02137   14.38689   -7.72292
      H1     5.81824   14.10666   -8.14167
       H     1.64161   15.74466   -5.40497
       O     2.06860   15.02756   -5.96608
      H1     1.71298   14.16196   -5.67862
       H     6.64695   12.46062   -9.48731
       O     7.20454   12.31269   -8.69998
      H1     6.76695   11.74202   -8.03888
       H    -2.43895   13.73536   -6.31490
       O    -2.16573   13.88405   -7.26344
      H1    -1.20649   14.06102   -7.19279
       H    -1.62029    7.48987  -13.55532
       O    -1.92496    8.23870  -13.05718
      H1    -1.64784    8.15783  -12.17341
       H     2.15775   10.16764  -12.58364
       O     2.43795    9.27051  -12.51158
      H1     1.88731    8.89752  -11.89115
       H     2.87893   10.27239   -9.02999
       O     2.02810   10.63314   -9.20782
      H1     2.19349   11.58150   -9.43289
       H     3.59620    5.66683   -8.22303
       O     3.04877    6.48872   -8.20013
      H1     2.12573    6.27891   -8.37022
       H     4.46611    7.39143  -14.11481
       O     3.79027    7.04128  -13.52094
      H1     3.62894    7.76357  -12.94264

