90
frame 7 | Written by MDAnalysis XYZWriter (release 2.4.3)
       H    17.30906  -13.72428   -6.57272
       O    16.90975  -14.19385   -7.31527
      H1    16.85165  -13.54705   -8.05959
       H    18.44173  -14.84913   -7.97757
       O    19.32537  -15.25243   -8.15680
      H1    19.22431  -16.11962   -8.54822
       H    17.06939  -19.74138  -12.29584
       O    16.74704  -18.83521  -12.27944
      H1    15.95526  -18.81448  -11.76836
       H    15.85767  -13.50759  -15.72154
       O    15.37430  -14.11811  -15.15390
      H1    16.06699  -14.76768  -14.96235
       H    12.66900  -17.39605  -15.06912
       O    13.11158  -17.75074  -15.81358
      H1    13.46867  -18.64363  -15.63737
       H    18.70930  -12.22497  -15.72311
       O    18.97404  -13.08759  -15.38146
      H1    19.34245  -13.54812  -16.12592
       H    11.76939  -12.80558   -9.34320
       O    10.89285  -12.66647   -9.76885
      H1    10.35485  -13.44842   -9.79614
       H    17.07940  -17.34082  -13.84761
       O    16.93112  -16.41140  -14.04320
      H1    17.26200  -15.80769  -13.38667
       H    12.51254  -19.81305   -8.31969
       O    12.97427  -19.34060   -9.03794
      H1    12.57205  -18.46506   -9.09767
       H    13.90875  -13.07133  -11.29496
       O    14.64047  -13.51253  -10.82684
      H1    14.80387  -14.24089  -11.40842
       H    10.68322  -13.22112  -16.56614
       O    11.46656  -13.33563  -15.97896
      H1    11.88505  -14.16909  -16.23246
       H    13.04808  -18.78473  -11.02735
       O    13.44972  -18.35691  -11.81329
      H1    12.86220  -18.58722  -12.57163
       H    12.94606  -16.09284   -9.01627
       O    12.07199  -16.56219   -9.08029
      H1    11.54876  -16.21839   -8.37154
       H    13.56798  -13.42126   -7.52315
       O    13.39351  -13.00876   -8.44030
      H1    14.09235  -13.30408   -9.06629
       H    17.47634  -17.09263  -18.31239
       O    16.82302  -17.67522  -18.66976
      H1    16.39091  -18.12028  -17.93923
       H    14.84402   -9.78449  -14.73040
       O    14.59461  -10.67012  -14.41656
      H1    13.83069  -10.78241  -15.03001
       H    12.52194  -12.82408  -14.07137
       O    13.08841  -13.10724  -13.33375
      H1    13.90217  -13.37668  -13.73114
       H    14.98505  -15.95153  -10.16154
       O    14.60804  -16.14595   -9.30671
      H1    15.19718  -16.66645   -8.76767
       H    11.20828  -16.13056  -16.38346
       O    10.31082  -16.48476  -16.25646
      H1     9.91554  -16.63700  -17.18863
       H    19.72526  -10.67842  -12.83867
       O    18.88102  -10.20573  -12.58801
      H1    18.11293  -10.73750  -12.81226
       H    15.08510  -11.21416  -16.07089
       O    15.64040  -11.80061  -16.60947
      H1    15.31151  -11.77175  -17.46772
       H    16.94784  -11.41445   -9.36785
       O    16.56523  -12.29589   -9.22921
      H1    16.04541  -12.50235  -10.02450
       H    11.74346  -16.18775  -13.09873
       O    12.45740  -15.88720  -13.66482
      H1    12.42796  -14.94701  -13.44371
       H    18.55415  -13.51226  -12.28014
       O    18.16875  -13.94776  -13.04361
      H1    18.39777  -13.41766  -13.81805
       H    15.58682  -16.15279  -12.74246
       O    15.16951  -16.06889  -11.89381
      H1    14.51889  -16.80479  -11.85654
       H    14.13271  -14.75228  -16.49167
       O    13.36402  -15.25135  -16.85479
      H1    13.50827  -16.17555  -16.62955
       H    16.84925  -12.66883  -12.97585
       O    16.60365  -11.70225  -12.94236
      H1    15.84362  -11.62350  -13.50405
       H    15.91858  -19.26967   -7.68846
       O    15.62357  -18.39529   -7.92304
      H1    14.82499  -18.63908   -8.46138
       H    18.24324  -17.31758  -10.69585
       O    18.47060  -17.41338   -9.72064
      H1    18.06825  -18.26526   -9.43249
       H    10.65307  -16.81174  -10.81376
       O    10.29529  -16.33828  -11.58332
      H1     9.65069  -16.94395  -11.94031

