90
frame 3 | Written by MDAnalysis XYZWriter (release 2.4.3)
       H   -16.70567    3.04345  -12.37826
       O   -16.67440    2.10134  -12.27453
      H1   -17.26795    2.03907  -11.49979
       H   -15.14698   -0.71319  -17.13886
       O   -15.13718   -0.38521  -18.03138
      H1   -15.64013   -1.09912  -18.42282
       H   -18.04312   -3.34040  -15.33833
       O   -17.24160   -3.33004  -15.89572
      H1   -17.65678   -3.18216  -16.78254
       H   -11.90763   -2.18590  -16.94745
       O   -12.62920   -1.62936  -17.26981
      H1   -13.35360   -1.86933  -16.67325
       H   -19.69245   -2.42574  -14.46604
       O   -19.07767   -2.96799  -13.89493
      H1   -18.28949   -2.44432  -13.89324
       H   -15.15816   -3.07270  -19.82294
       O   -15.77595   -3.32425  -19.10774
      H1   -15.08479   -3.86753  -18.55780
       H   -16.84723   -0.98856  -11.83482
       O   -16.87976   -1.35123  -12.72847
      H1   -16.40852   -0.69107  -13.27977
       H   -15.53816   -1.48638  -10.05242
       O   -16.50225   -1.72055   -9.97706
      H1   -16.64860   -2.58487  -10.43811
       H   -18.48570   -2.92036  -11.72414
       O   -18.49106   -3.49556  -10.96130
      H1   -18.17927   -4.33156  -11.26500
       H   -12.62537   -1.81006  -13.23441
       O   -13.00889   -1.04193  -12.86889
      H1   -12.24629   -0.46730  -12.88797
       H   -10.14928   -3.46705  -13.85952
       O    -9.21532   -3.45931  -14.20177
      H1    -9.41028   -3.41637  -15.16674
       H   -14.12803   -0.70038  -10.84929
       O   -14.07210   -0.59029   -9.88011
      H1   -13.38172   -1.21230   -9.52699
       H   -17.42498    1.24180  -15.05940
       O   -18.12453    1.03796  -14.39679
      H1   -17.63288    1.18177  -13.58279
       H   -14.50973    3.27074  -16.04108
       O   -15.19249    3.94246  -16.16697
      H1   -15.90660    3.38796  -16.53689
       H   -11.96762    0.04634  -17.55045
       O   -11.56832    0.92843  -17.59791
      H1   -10.62181    0.75588  -17.66688
       H   -16.07468   -3.63801  -12.59090
       O   -15.61838   -4.43779  -12.88181
      H1   -14.99980   -4.04668  -13.55579
       H    -9.60538   -1.86776  -16.95150
       O    -9.92160   -2.77323  -17.04702
      H1   -10.34643   -2.73311  -17.94030
       H    -9.49260    0.08568  -13.53935
       O   -10.21354    0.00029  -14.21115
      H1   -10.57279    0.90637  -14.37402
       H   -17.28923    2.19951  -17.61093
       O   -16.77053    1.80916  -16.91019
      H1   -16.23803    1.18127  -17.37278
       H   -12.11840   -3.73990  -12.65006
       O   -12.02809   -3.48590  -13.58262
      H1   -12.56254   -4.09689  -14.15123
       H   -14.17491   -0.05241  -13.77255
       O   -15.01052    0.35945  -14.04176
      H1   -14.97781    1.20438  -13.49984
       H   -16.20655   -6.05536  -14.36859
       O   -16.28075   -6.86379  -14.91702
      H1   -15.65536   -7.50805  -14.61893
       H   -16.58972   -5.86959  -17.94089
       O   -15.59144   -6.05080  -17.82049
      H1   -15.65111   -6.24298  -16.90005
       H   -12.05914    2.18242  -14.69053
       O   -11.36480    2.53897  -14.15361
      H1   -11.84750    2.77100  -13.34125
       H   -13.81579   -4.43428  -16.35530
       O   -13.89270   -4.88831  -15.47248
      H1   -13.79136   -5.86205  -15.66516
       H   -12.97921    2.17971  -19.86587
       O   -12.14201    2.53602  -19.53465
      H1   -11.97914    1.73901  -18.91009
       H   -13.59161    1.11958  -15.66204
       O   -13.21714    2.00470  -15.92893
      H1   -12.57912    1.65462  -16.58050
       H   -12.65428   -5.27007  -18.27426
       O   -13.02116   -4.38387  -18.13090
      H1   -13.01660   -3.89906  -18.95004
       H   -15.32750   -7.01586  -11.28552
       O   -14.53691   -6.52619  -11.56415
      H1   -14.93700   -5.73009  -11.98226
       H   -15.53282   -2.49116  -15.71554
       O   -14.74618   -1.96965  -15.46791
      H1   -14.98350   -1.66277  -14.57916

