90
frame 3 | Written by MDAnalysis XYZWriter (release 2.4.3)
       H   -16.85436   -7.60427   -2.59148
       O   -16.65324   -7.06265   -3.42276
      H1   -16.32105   -7.77093   -3.97963
       H   -15.41608   -4.21119   -3.36495
       O   -15.39461   -3.47999   -2.74975
      H1   -14.95644   -3.91545   -1.98044
       H   -12.75553   -7.56480   -1.57958
       O   -12.44113   -8.46569   -1.35344
      H1   -11.52569   -8.40783   -1.59972
       H   -11.27238   -5.00773   -4.87676
       O   -11.81204   -4.84157   -5.67551
      H1   -11.44755   -5.54054   -6.32395
       H   -13.33549   -3.29836   -8.99262
       O   -12.71694   -2.54114   -8.91120
      H1   -12.68766   -2.37440   -7.92665
       H   -15.49938   -5.05886   -8.33200
       O   -16.30971   -4.87147   -7.83307
      H1   -16.11393   -3.97506   -7.49661
       H   -12.77413   -4.45838    0.03213
       O   -11.87871   -4.57343   -0.29366
      H1   -11.54028   -5.07278    0.48102
       H   -10.35160   -7.30459   -7.79250
       O   -10.34667   -6.65992   -7.01007
      H1   -10.26436   -7.28318   -6.26671
       H   -16.57885   -7.63996   -9.27527
       O   -16.40484   -7.92983  -10.23014
      H1   -15.80054   -8.62803  -10.06635
       H   -15.76180   -0.07291   -5.30446
       O   -15.18251   -0.28934   -6.08253
      H1   -14.40436   -0.76202   -5.63984
       H   -16.91283   -6.65155   -7.41537
       O   -16.94574   -7.60185   -7.46295
      H1   -17.92258   -7.72701   -7.35231
       H   -18.23041   -3.12568   -5.99054
       O   -18.95102   -3.18450   -5.30463
      H1   -18.55217   -3.76631   -4.65680
       H   -13.37964   -8.47046   -3.79816
       O   -13.29158   -8.67068   -4.73930
      H1   -14.16588   -9.09328   -4.88149
       H   -10.96534   -2.33541   -3.53353
       O   -10.23581   -1.93708   -4.06550
      H1    -9.38685   -2.22438   -3.71066
       H   -15.28917   -4.54662    0.35256
       O   -14.44844   -3.95894    0.27835
      H1   -14.87283   -3.13978    0.47287
       H   -17.10000   -2.14679   -7.97200
       O   -16.80210   -2.26947   -7.05545
      H1   -16.17280   -1.50927   -7.01130
       H   -11.37802   -8.72437   -4.68513
       O   -10.54553   -8.24604   -4.56475
      H1    -9.88445   -8.90979   -4.92518
       H   -10.16026   -4.58601   -1.72047
       O    -9.43244   -5.04347   -2.13001
      H1    -9.05485   -5.49079   -1.36026
       H   -17.56470   -1.98605   -0.84383
       O   -17.16158   -1.54701   -1.63559
      H1   -16.39776   -2.13001   -1.81704
       H   -12.46029   -3.07731   -6.08423
       O   -12.62466   -2.11507   -6.26545
      H1   -11.72965   -1.72016   -6.20140
       H   -18.80900   -5.13576   -2.13934
       O   -19.69462   -5.51156   -1.87125
      H1   -19.53166   -5.56947   -0.91621
       H   -14.98581   -5.75586   -5.31219
       O   -14.51612   -5.17206   -4.73829
      H1   -13.57350   -5.12465   -5.11122
       H   -18.44276   -1.51118   -4.67164
       O   -18.03379   -0.72666   -4.23015
      H1   -17.64712   -1.05702   -3.38090
       H   -13.18746   -8.46014   -6.88232
       O   -13.35898   -8.13836   -7.77516
      H1   -12.49665   -8.03567   -8.19536
       H   -13.87078   -5.75822   -3.23048
       O   -13.42680   -6.18713   -2.44879
      H1   -12.98722   -5.37689   -2.12528
       H    -9.27290   -3.17781   -5.41548
       O    -8.44689   -3.16300   -5.83365
      H1    -8.57823   -3.77766   -6.60605
       H   -17.42189   -5.71436   -3.53133
       O   -17.79025   -4.83429   -3.59653
      H1   -17.08518   -4.27508   -3.27966
       H   -12.29525   -2.88059   -1.93918
       O   -12.47023   -3.00642   -2.83872
      H1   -13.42908   -2.79413   -2.86402
       H   -14.09551   -5.74097   -9.95910
       O   -13.84037   -5.11630   -9.32706
      H1   -13.20269   -5.63541   -8.80635
       H   -16.26648   -9.85391   -5.38849
       O   -15.96599   -8.97633   -5.27535
      H1   -16.39388   -8.60272   -6.10617

