90
frame 3 | Written by MDAnalysis XYZWriter (release 2.4.3)
       H   -15.41608   -4.21119   -3.36495
       O   -15.39461   -3.47999   -2.74975
      H1   -14.95644   -3.91545   -1.98044
       H   -11.29494   -2.69403   -0.19339
       O   -11.39076   -1.75925   -0.39657
      H1   -10.52673   -1.37843   -0.10516
       H   -12.21100    1.96604   -3.69457
       O   -12.14341    1.33977   -2.93325
      H1   -11.64658    0.56566   -3.32048
       H   -14.45479    1.26607    3.03156
       O   -14.32138    1.39585    4.00143
      H1   -14.03048    2.34167    3.97426
       H   -15.02464    3.56383    1.47535
       O   -14.72836    2.65682    1.33597
      H1   -15.48338    2.05725    1.13260
       H   -14.56537    1.52598   -1.41436
       O   -15.18143    2.24085   -1.60946
      H1   -14.79479    2.89358   -1.00639
       H   -10.94862    2.35368    4.37546
       O   -10.91879    1.60120    5.00143
      H1   -11.54967    0.97748    4.54163
       H   -12.77413   -4.45838    0.03213
       O   -11.87871   -4.57343   -0.29366
      H1   -11.54028   -5.07278    0.48102
       H    -8.83246   -2.58422    3.43626
       O    -8.23800   -1.88048    3.20481
      H1    -7.36158   -2.29368    3.17376
       H   -12.61595    1.20036    0.85635
       O   -12.73231    0.25502    1.02255
      H1   -12.38138   -0.13578    0.22256
       H   -10.83798    5.52256    2.72515
       O   -10.00403    5.25058    2.33498
      H1   -10.31680    4.39191    1.99930
       H    -9.48541   -1.28495    1.52239
       O    -9.17975   -0.61672    0.86714
      H1    -8.22836   -0.92767    0.76416
       H   -17.42581    0.88149    0.27787
       O   -16.89924    0.96327    1.09493
      H1   -16.50702    0.05153    1.02973
       H   -10.96534   -2.33541   -3.53353
       O   -10.23581   -1.93708   -4.06550
      H1    -9.38685   -2.22438   -3.71066
       H   -15.28917   -4.54662    0.35256
       O   -14.44844   -3.95894    0.27835
      H1   -14.87283   -3.13978    0.47287
       H   -12.22632   -1.13831    4.40322
       O   -12.48069   -0.83280    5.29112
      H1   -11.78970   -1.18617    5.85547
       H    -7.55558   -0.31565   -2.77808
       O    -7.49560   -1.07466   -3.42233
      H1    -6.80621   -1.59478   -2.95853
       H   -14.40628   -0.70918    1.56651
       O   -15.10201   -1.35437    1.61655
      H1   -14.72936   -1.86696    2.38528
       H   -10.16026   -4.58601   -1.72047
       O    -9.43244   -5.04347   -2.13001
      H1    -9.05485   -5.49079   -1.36026
       H    -9.85898    0.93205    1.77417
       O   -10.07830    1.83500    2.14986
      H1    -9.32229    2.08407    2.73118
       H   -17.56470   -1.98605   -0.84383
       O   -17.16158   -1.54701   -1.63559
      H1   -16.39776   -2.13001   -1.81704
       H    -6.75198    1.67712   -2.52385
       O    -7.39576    1.11995   -2.04121
      H1    -6.87681    0.87307   -1.24917
       H   -11.09437    2.46876   -0.84391
       O   -11.50512    2.65427   -0.03118
      H1   -10.88470    2.43056    0.66265
       H    -8.40867    2.57345   -1.27718
       O    -8.54183    3.49052   -0.93892
      H1    -8.96545    3.96224   -1.66994
       H   -12.17807   -2.44251    2.80579
       O   -11.46697   -1.71601    2.75370
      H1   -11.86024   -1.14070    2.10445
       H   -15.07233    2.70624   -3.52388
       O   -15.40594    3.31929   -4.24129
      H1   -16.31888    3.46833   -4.00860
       H   -14.20328   -2.90437    4.01912
       O   -13.82391   -3.07471    3.13072
      H1   -14.15320   -3.89426    2.86652
       H   -12.21309    3.66253   -1.44855
       O   -11.94588    4.40694   -2.07376
      H1   -11.89795    3.88848   -2.92012
       H    -9.52422    0.61393    4.87890
       O    -8.55742    0.33244    4.91691
      H1    -8.59070   -0.50968    4.44408
       H   -12.29525   -2.88059   -1.93918
       O   -12.47023   -3.00642   -2.83872
      H1   -13.42908   -2.79413   -2.86402

