90
frame 3 | Written by MDAnalysis XYZWriter (release 2.4.3)
       H   -14.88999   14.59084    5.87318
       O   -13.88322   14.59990    5.83955
      H1   -13.62197   14.99311    4.95232
       H   -19.27542   13.02790    1.77618
       O   -19.00620   12.50858    2.52769
      H1   -18.05341   12.33831    2.35348
       H   -15.85615   14.51892    3.10620
       O   -16.85984   14.45550    3.13217
      H1   -17.26716   15.34184    2.94182
       H   -14.30249   16.55976    9.71136
       O   -14.82398   17.35273    9.49884
      H1   -14.54138   17.58908    8.58616
       H   -15.19511   10.31726    7.45820
       O   -15.97015    9.88254    7.81807
      H1   -15.56176    9.20731    8.38738
       H   -19.03790    9.56881    8.57712
       O   -18.72018   10.35241    9.02664
      H1   -17.80210   10.38265    8.81106
       H   -16.63486   13.83449    4.78256
       O   -16.55466   13.51830    5.70826
      H1   -17.54508   13.40288    5.92094
       H   -15.47420   20.01527    4.61470
       O   -14.69650   19.45186    4.37860
      H1   -14.88299   18.74745    5.01053
       H   -18.93642   15.67181    0.66482
       O   -19.01675   16.50896    1.12188
      H1   -19.79763   16.34538    1.65369
       H   -17.40718   17.28802   11.25660
       O   -17.36431   16.53761   10.66800
      H1   -16.57892   16.76708   10.17552
       H   -15.95796    7.45189    5.32884
       O   -15.87383    7.23837    6.22787
      H1   -15.55663    8.04054    6.67526
       H   -18.10417    9.16618    4.01550
       O   -18.67464    8.52812    3.60542
      H1   -18.74663    8.83978    2.70888
       H   -16.86451   18.40828    5.48733
       O   -16.62574   18.39689    6.47146
      H1   -17.43916   18.25034    6.94271
       H   -19.08704   13.03317   -0.45280
       O   -18.79008   13.90915   -0.06893
      H1   -17.85191   13.72746   -0.36014
       H   -19.10626   16.70853    8.99315
       O   -18.95684   17.46361    8.37369
      H1   -18.61759   18.07816    9.07556
       H   -13.10833   15.06924    2.60545
       O   -12.75451   15.51022    3.42003
      H1   -12.74459   16.44376    3.11497
       H   -12.90066   11.46750    6.84949
       O   -13.48822   10.70109    6.82429
      H1   -13.26473   10.25775    6.01296
       H   -14.98917   17.27935    6.76822
       O   -14.05416   17.32003    6.81907
      H1   -13.73023   16.38222    6.70944
       H   -16.48158   11.69515    0.70676
       O   -16.55234   11.41697    1.64128
      H1   -15.77430   11.75568    2.10016
       H   -18.32736    8.75057    0.41175
       O   -18.75253    9.50111    0.90309
      H1   -18.01199   10.11136    1.07651
       H   -15.37897    7.51246    2.78046
       O   -15.57812    8.07486    3.57629
      H1   -16.01570    8.82064    3.19917
       H   -17.66840   14.90334   10.84074
       O   -18.04889   13.98000   10.96203
      H1   -18.31086   13.79572   10.06465
       H   -17.16549   12.64665   11.35783
       O   -16.43798   11.99629   11.44576
      H1   -15.75149   12.62661   11.43138
       H   -13.70915   12.22993    2.45437
       O   -14.17687   11.81515    3.15628
      H1   -13.54552   11.28545    3.59795
       H   -18.10433   17.26848    4.06569
       O   -17.38312   17.83677    3.80873
      H1   -17.85127   18.63903    3.54346
       H   -18.61099   11.94808    5.57199
       O   -19.25665   12.56274    5.95280
      H1   -19.76783   12.87055    5.19457
       H   -13.99828   14.71068    0.45471
       O   -13.59777   14.15654    1.16758
      H1   -12.65256   14.25513    0.91481
       H   -14.08521   10.18001   11.48366
       O   -14.21549   10.43651   10.53666
      H1   -15.04924   10.94277   10.75206
       H   -12.24158   13.60464    5.92182
       O   -11.65162   13.03860    6.37667
      H1   -11.09232   12.72352    5.61367
       H   -16.66944   11.29903    5.41656
       O   -17.30404   10.59413    5.36473
      H1   -16.99386    9.89521    6.03508

