90
frame 3 | Written by MDAnalysis XYZWriter (release 2.4.3)
       H   -12.31077   10.27682  -18.94315
       O   -12.79800   10.57500  -19.70403
      H1   -13.72365   10.30738  -19.62691
       H   -12.80760    8.84869  -14.40430
       O   -13.48328    9.47017  -14.35753
      H1   -14.35003    9.01983  -14.47171
       H    -8.79242   18.88476  -19.04999
       O    -9.27035   19.58121  -19.58474
      H1   -10.25101   19.26692  -19.50553
       H    -8.66855   13.41190  -14.64936
       O    -9.33712   12.96705  -15.23744
      H1    -9.97471   12.60712  -14.60605
       H   -11.14821    7.45734  -15.96006
       O   -10.82074    8.19146  -15.41449
      H1   -10.95468    8.92918  -16.03637
       H    -5.24360    9.97853  -17.81068
       O    -5.46387   10.97721  -17.71917
      H1    -6.36418   11.02524  -17.32182
       H   -13.33855   18.53153  -15.33681
       O   -13.24973   18.51600  -16.29572
      H1   -12.42441   18.02381  -16.40256
       H    -8.82502    8.26445  -15.57502
       O    -7.98212    8.50834  -15.97947
      H1    -7.38861    7.96897  -15.41284
       H    -8.23787   10.12897  -16.53090
       O    -8.18815   10.99360  -16.95455
      H1    -8.62122   11.56948  -16.30729
       H   -10.68764    9.28280  -18.09493
       O   -10.95328    9.86423  -17.33722
      H1   -10.30586   10.58789  -17.43649
       H    -5.36153   12.18102  -18.92006
       O    -5.35584   12.77962  -19.77853
      H1    -6.30868   12.57290  -19.92135
       H   -15.39360   11.71361  -14.99455
       O   -16.19864   11.67296  -14.43940
      H1   -15.85607   12.01320  -13.57483
       H   -16.67349   13.43947  -16.81915
       O   -17.12329   13.05814  -17.61621
      H1   -17.62045   12.27469  -17.30783
       H   -11.25275    7.62398  -19.80735
       O   -10.73830    7.64695  -19.00341
      H1    -9.80779    7.43904  -19.28362
       H   -10.00636   14.79212  -12.32417
       O    -9.15755   14.52764  -11.93134
      H1    -9.05945   15.27153  -11.32072
       H   -13.10975   14.41004  -18.73850
       O   -12.75287   15.18665  -18.28725
      H1   -13.34359   15.20602  -17.50285
       H    -6.94431    8.15443  -18.93738
       O    -7.76662    7.81050  -18.60003
      H1    -7.72344    8.14227  -17.65764
       H    -7.90375   14.44908  -13.34854
       O    -7.39858   14.32026  -14.15498
      H1    -7.16521   15.22394  -14.30960
       H   -11.01505   16.05016  -17.10075
       O   -11.02118   17.01221  -16.89793
      H1   -10.08653   17.26124  -16.72899
       H    -7.67224   18.40432  -16.86821
       O    -8.35365   18.00975  -17.49976
      H1    -8.28730   17.05211  -17.35610
       H    -4.22492   12.61695  -14.82242
       O    -4.25419   13.62131  -14.85587
      H1    -4.82800   13.62871  -15.62024
       H   -11.19091   15.52823  -13.75273
       O   -11.52850   14.95927  -13.02579
      H1   -12.20760   15.55145  -12.60626
       H   -12.23581   11.94833  -14.19184
       O   -11.49863   12.10023  -13.59272
      H1   -11.57787   13.00707  -13.27285
       H   -13.26395   10.84221  -16.08236
       O   -13.51307   11.74614  -16.25470
      H1   -12.99778   11.88342  -17.10171
       H    -7.99582   15.04391  -15.77158
       O    -8.06452   15.32256  -16.66893
      H1    -7.24954   15.01286  -17.09820
       H    -8.28130   10.95526  -18.66395
       O    -8.13241   11.35389  -19.56411
      H1    -8.91463   12.02002  -19.52997
       H   -10.50859   13.06331  -16.71272
       O   -11.07493   12.95084  -17.45660
      H1   -10.61712   13.41829  -18.16528
       H    -7.20278   17.20940  -13.13179
       O    -7.65861   17.19168  -13.96946
      H1    -8.58618   17.25756  -13.67899
       H    -5.19775   15.86157  -17.25015
       O    -5.47273   14.93093  -17.26676
      H1    -4.79402   14.53273  -17.91103
       H   -16.91972   14.21059  -14.98563
       O   -16.22014   14.52090  -15.55876
      H1   -16.63307   15.00684  -16.26539

