90
frame 0 | Written by MDAnalysis XYZWriter (release 2.4.3)
       H   -13.04494  -18.16725   -5.87108
       O   -13.61393  -17.33741   -5.74030
      H1   -13.21910  -17.16338   -4.89035
       H    -5.51068  -15.74288   -2.67844
       O    -4.84601  -16.30465   -3.03736
      H1    -4.12719  -15.58677   -3.01269
       H   -10.09474  -15.24581    0.20470
       O   -10.05273  -14.74474    1.05373
      H1    -9.06304  -14.58724    1.15216
       H   -11.14443  -13.68551   -2.73861
       O   -11.38967  -13.80439   -3.66772
      H1   -10.75253  -14.55751   -3.86885
       H    -6.81179  -13.64683   -1.74200
       O    -6.82235  -14.62833   -1.79969
      H1    -6.34175  -14.79204   -0.92821
       H    -4.57046  -18.10965   -1.54522
       O    -4.76533  -19.01286   -1.81991
      H1    -5.44283  -18.76181   -2.40919
       H    -4.90663  -15.98621    0.48833
       O    -5.78490  -15.57956    0.50638
      H1    -6.39676  -16.20313    0.87912
       H   -10.81346  -17.87300  -10.10117
       O   -10.11215  -17.39374  -10.55016
      H1   -10.49617  -16.52305  -10.50876
       H    -6.92869  -14.30832   -8.46093
       O    -7.90190  -14.26638   -8.75714
      H1    -8.12105  -13.28152   -8.59197
       H    -8.93448  -14.91926   -7.34036
       O    -9.68189  -15.11531   -6.75062
      H1    -9.81229  -14.26726   -6.26966
       H    -8.07017  -18.87595   -2.87146
       O    -7.14619  -18.66129   -3.21323
      H1    -7.39856  -18.22528   -4.03584
       H    -8.41040  -15.22208   -3.09106
       O    -9.05572  -15.43574   -3.80967
      H1    -8.44568  -15.44769   -4.58276
       H   -10.36475  -12.52659   -5.07681
       O   -10.15637  -12.36682   -6.00323
      H1   -10.95152  -11.96139   -6.33179
       H    -9.08098  -18.86365   -0.15288
       O    -8.95717  -19.87535   -0.11586
      H1    -7.97634  -19.93566   -0.40834
       H    -8.71599  -17.80077   -9.25968
       O    -8.06910  -18.39664   -8.82079
      H1    -7.43792  -18.55079   -9.56252
       H   -10.55171  -13.73650   -0.09883
       O   -10.51322  -13.33941   -0.98749
      H1    -9.58105  -13.18587   -1.12998
       H   -15.00910  -14.71264   -3.37590
       O   -14.75866  -15.26752   -2.57635
      H1   -14.45868  -14.55608   -1.99443
       H   -15.22793  -17.53794    0.12994
       O   -14.33186  -17.95260    0.01776
      H1   -14.35568  -18.05779   -0.88145
       H   -12.62085  -17.62087    0.65711
       O   -11.89791  -17.33646    1.23165
      H1   -11.32207  -18.18874    1.27073
       H    -9.45059  -16.44019    1.15490
       O    -8.97355  -17.14440    0.63344
      H1    -8.17528  -17.31159    1.18485
       H    -4.16791  -18.72848   -4.98862
       O    -4.36162  -18.40321   -5.87624
      H1    -5.35087  -18.24500   -5.92969
       H   -14.43625  -17.95050  -10.75145
       O   -13.55201  -17.72321  -11.01271
      H1   -13.09632  -18.20371  -10.30852
       H   -13.99010  -18.16509   -3.13118
       O   -14.03662  -19.03188   -2.69023
      H1   -14.84628  -19.42751   -2.99333
       H    -7.47924  -18.00707   -7.18766
       O    -7.25958  -17.91981   -6.22340
      H1    -6.86784  -17.01900   -6.20199
       H   -13.95475  -16.45050   -7.22756
       O   -14.40177  -15.70976   -7.71725
      H1   -15.00147  -16.18301   -8.27912
       H   -16.57382  -18.09308   -4.82880
       O   -16.49401  -17.57126   -5.62580
      H1   -15.55561  -17.48571   -5.77105
       H   -10.90698  -15.11247   -8.34751
       O   -11.01606  -14.85510   -9.29162
      H1   -10.08916  -14.60039   -9.41413
       H    -5.44035  -15.42532   -6.02126
       O    -6.13215  -15.45511   -5.36310
      H1    -5.59704  -15.66606   -4.61403
       H   -12.57876  -15.70455   -3.37724
       O   -12.48369  -16.67982   -3.39830
      H1   -11.54854  -16.85352   -3.41321
       H    -9.95185  -18.99038   -4.16932
       O   -10.18317  -18.25930   -3.57225
      H1    -9.98891  -17.42345   -4.01943

