90
frame 7 | Written by MDAnalysis XYZWriter (release 2.4.3)
       H     7.87347   -0.82570    0.11050
       O     8.27423   -1.72705    0.01850
      H1     9.08249   -1.69153    0.61148
       H    11.23439   -2.34719   -0.50035
       O    11.38114   -2.32400   -1.45724
      H1    12.26816   -2.56839   -1.63023
       H    13.89632   -7.42556    3.67547
       O    13.79050   -6.83007    4.41586
      H1    14.62290   -6.75300    4.85931
       H    14.09562   -9.99646   -0.32838
       O    13.37588   -9.40053   -0.47827
      H1    12.74279   -9.93412   -1.02919
       H     7.28249   -2.75498    0.93915
       O     6.92198   -3.20677    1.69327
      H1     6.03892   -3.50550    1.52031
       H    14.08845   -3.29862   -2.75125
       O    14.43618   -3.26909   -1.82459
      H1    14.38004   -4.19666   -1.57857
       H     6.66059   -6.33957    1.19881
       O     7.29326   -5.93956    0.57473
      H1     7.29855   -4.95936    0.70482
       H     9.34949   -4.03157    4.13660
       O    10.30184   -3.96518    4.03031
      H1    10.42506   -4.37730    3.19998
       H    11.21640   -2.93547    5.69268
       O    11.12255   -2.49930    6.51914
      H1    12.00178   -2.05812    6.58923
       H     9.57875   -2.24195    4.25129
       O     9.57224   -1.22713    4.14151
      H1     8.64292   -1.03112    3.85288
       H     8.42729   -8.73029    1.07227
       O     7.81462   -9.38199    1.28590
      H1     7.76803   -9.99693    0.50464
       H    12.63489   -6.51224   -1.11546
       O    13.17113   -5.74158   -0.89261
      H1    13.79287   -6.12755   -0.25856
       H    14.18104   -4.58780    4.24944
       O    14.24263   -3.81891    4.82775
      H1    15.20622   -3.61900    4.75047
       H     9.96766   -7.49530    4.41712
       O     9.17621   -7.38211    3.87749
      H1     9.47756   -7.25541    2.99379
       H    10.06990   -1.89275    2.31354
       O    10.39452   -2.17197    1.42322
      H1    10.65311   -3.07824    1.51142
       H    12.09655   -8.44334   -0.97589
       O    11.42792   -7.78742   -1.24953
      H1    11.25935   -8.04763   -2.14118
       H    16.73786   -2.60916   -0.03211
       O    15.83867   -2.64808    0.44922
      H1    15.12784   -2.73349   -0.22046
       H    12.74119    0.57126   -1.35293
       O    12.15117    0.40971   -2.05230
      H1    11.99456   -0.54422   -2.00489
       H    11.99335   -5.12673    0.48941
       O    11.27618   -4.95149    1.08957
      H1    10.84627   -5.83775    1.10516
       H     7.11647   -5.18151    3.47566
       O     7.71716   -5.07784    4.23482
      H1     8.31860   -5.78798    4.26008
       H    13.91372   -1.37254    3.84965
       O    14.18626   -0.46109    3.72715
      H1    13.35107    0.04652    3.65280
       H    10.90495   -6.50043    6.19466
       O    11.34781   -7.13947    5.56584
      H1    12.13878   -6.80180    5.15671
       H    16.26901   -6.11742    0.02910
       O    15.58530   -5.73790    0.69039
      H1    15.92251   -4.84012    0.84940
       H     9.50097   -4.08934   -3.61877
       O    10.43502   -4.34729   -3.57977
      H1    10.82800   -4.20175   -2.77650
       H    15.17577   -1.00884    0.89505
       O    14.76238   -0.18185    1.03161
      H1    14.57532   -0.24057    1.96578
       H    13.90619   -5.80560   -3.31301
       O    14.10216   -5.97329   -4.26590
      H1    13.30613   -5.78821   -4.77433
       H    11.74295   -3.03486   -4.15717
       O    12.73783   -2.99235   -4.16310
      H1    12.89312   -2.39712   -4.92706
       H    13.42039   -9.13544    1.55620
       O    13.20312   -9.08572    2.49917
      H1    12.44067   -9.58409    2.69920
       H     9.98825   -7.44006    0.08593
       O     9.65170   -7.28010    0.96360
      H1     8.88753   -6.70680    0.78314
       H     9.66027   -1.71212   -2.68087
       O     8.78373   -1.40293   -2.88868
      H1     8.32280   -1.48603   -2.04348

