90
frame 0 | Written by MDAnalysis XYZWriter (release 2.4.3)
       H     8.30774   10.06489    2.27736
       O     7.88819   10.03873    3.17162
      H1     8.69219   10.15711    3.72002
       H     7.28804   15.66695    5.41969
       O     7.64446   15.20365    4.66187
      H1     7.82456   14.32135    5.02145
       H     7.12389   13.81247    2.04993
       O     7.26987   12.86259    2.06204
      H1     6.84342   12.67108    2.88322
       H     4.90942   14.71883    1.83839
       O     4.18335   14.33908    1.29301
      H1     4.36097   13.39815    1.19791
       H     1.52056   12.34061    2.04723
       O     1.66756   11.45198    2.34662
      H1     0.79975   11.02639    2.22267
       H    10.80865   12.63747   -0.88045
       O    11.12198   11.89627   -0.33428
      H1    10.58668   12.08432    0.48406
       H     5.55063   11.34752    0.63017
       O     5.86752   11.28921   -0.30455
      H1     6.24906   12.20459   -0.42765
       H     4.85072    9.80239    2.07200
       O     4.38211   10.68585    1.96312
      H1     3.41082   10.47046    2.22905
       H     8.44944   12.55326    6.54987
       O     9.02758   12.87009    5.87823
      H1     9.59914   13.47670    6.43466
       H     6.34980    8.64475    9.25904
       O     5.69946    9.23064    8.91218
      H1     4.94460    9.32120    9.61671
       H    10.08257   11.25880    5.20046
       O    10.08731   10.30072    5.07977
      H1    10.92456   10.23902    4.58245
       H     7.95882    8.44958    3.59434
       O     8.24153    7.53417    3.87189
      H1     7.73371    6.97546    3.20559
       H     2.83399   12.35863    7.78476
       O     2.01896   11.85877    7.90721
      H1     1.90678   11.59130    6.92761
       H     6.62917   15.98890    7.60046
       O     7.06799   15.20511    7.93131
      H1     6.49779   14.52738    7.55553
       H    10.55298    7.06361    2.39620
       O    10.59760    7.98893    2.76731
      H1     9.68040    7.93363    3.04664
       H     5.21194   12.80134    7.71543
       O     4.31967   13.13610    7.77036
      H1     4.14110   13.55730    6.87952
       H    11.48538   11.60734    2.67310
       O    12.28053   11.18691    3.09939
      H1    12.51503   10.55329    2.39438
       H     6.70246   11.10988    7.64949
       O     6.72532   11.93056    7.12014
      H1     6.62183   11.59478    6.25662
       H     4.78232    7.80835    5.90806
       O     5.05070    8.75426    5.87055
      H1     5.39598    8.97950    6.74451
       H     5.31961    8.74034    4.18494
       O     5.30484    8.36920    3.25035
      H1     4.63699    7.68498    3.47612
       H     9.01863   12.84438    2.05074
       O     9.88682   12.51257    2.10534
      H1    10.24597   13.32130    2.55983
       H     8.85221    9.90232   -0.23761
       O     8.08034    9.49459    0.21482
      H1     7.31287   10.05736    0.16559
       H     4.15208    9.52620    0.64697
       O     4.28522    8.81735   -0.04897
      H1     4.74059    9.21323   -0.80088
       H     6.79675   15.63822    3.02753
       O     6.35167   15.86627    2.22390
      H1     7.09958   16.19450    1.70122
       H     3.53459   15.67881    5.45872
       O     3.92102   14.76443    5.43955
      H1     4.54697   14.90344    4.69797
       H     2.66960    8.21035    6.80550
       O     2.18702    7.96482    6.03285
      H1     2.07014    8.90828    5.66168
       H     8.03917    7.79855    7.50184
       O     7.69883    6.97527    7.13544
      H1     7.56479    7.25710    6.23939
       H     3.36856   10.66283    5.13090
       O     2.42278   10.87073    5.02927
      H1     2.36626   11.16115    4.07782
       H     9.39989    9.71974    6.62180
       O     8.84606    9.59490    7.46942
      H1     9.28871   10.27813    7.96583
       H     5.21591   11.25145    3.84942
       O     5.92972   11.67024    4.38159
      H1     6.66178   11.14728    4.02349

