90
frame 0 | Written by MDAnalysis XYZWriter (release 2.4.3)
       H     5.73250  -14.80019   -4.18527
       O     5.03164  -14.16858   -4.29330
      H1     5.51500  -13.33709   -4.41482
       H     0.42663  -12.75344   -4.38498
       O     1.28650  -13.16860   -4.37808
      H1     0.91714  -14.05290   -4.21322
       H     1.87424  -15.11866  -10.26591
       O     0.93040  -15.02547   -9.99938
      H1     1.07675  -14.73924   -9.01671
       H    -1.83676  -10.08409   -8.97288
       O    -1.52877   -9.95605   -9.88590
      H1    -0.62318  -10.26615   -9.87910
       H     2.04915  -12.95138  -12.49683
       O     3.06358  -12.85889  -12.38315
      H1     3.29813  -13.07042  -13.32894
       H     9.21448  -11.99128   -7.14238
       O     8.33997  -12.09366   -6.64787
      H1     7.75599  -11.60287   -7.23304
       H     3.39584  -14.44500  -11.58493
       O     3.44728  -15.21076  -10.97435
      H1     3.45959  -15.97568  -11.54381
       H     3.61665  -12.25354   -8.62817
       O     2.69255  -12.06919   -8.34363
      H1     2.83319  -11.95778   -7.38716
       H     3.36238   -7.47671   -6.18156
       O     2.78589   -7.51337   -6.96261
      H1     3.16895   -8.24729   -7.49820
       H     5.46521   -6.99589   -5.34231
       O     4.72780   -7.63968   -5.16897
      H1     5.19931   -8.40697   -4.93196
       H     1.94566  -10.62437  -10.53664
       O     1.38317   -9.88647  -10.71545
      H1     1.96999   -9.06880  -10.76875
       H     1.97195  -13.69083   -7.66406
       O     1.75689  -14.61275   -7.54226
      H1     0.87128  -14.46763   -7.24680
       H     2.07772   -6.63891  -10.90298
       O     2.45794   -7.50552  -11.21551
      H1     3.12748   -7.23565  -11.89551
       H     1.04531   -9.06478   -3.68965
       O     1.04913   -8.95508   -4.60124
      H1     1.79612   -9.44290   -4.92573
       H     1.29721   -8.48297   -7.17289
       O     0.57713   -8.84982   -7.68237
      H1     1.15216   -9.12529   -8.43432
       H     3.97159  -10.80251   -5.00270
       O     3.16746  -10.69626   -5.51259
      H1     2.45316  -11.12865   -5.04946
       H     4.37480  -15.63044   -5.37511
       O     3.62929  -16.12887   -5.85920
      H1     3.04966  -15.41598   -6.15677
       H     8.51287   -9.67489   -4.40124
       O     7.85059   -9.76437   -5.08015
      H1     8.19015  -10.39388   -5.77136
       H     4.27977   -6.76713   -7.71978
       O     4.96093   -6.14948   -8.00336
      H1     4.43256   -5.33181   -8.06854
       H     6.23788   -9.40623   -3.10221
       O     5.48274   -9.90542   -3.46333
      H1     4.86662   -9.72760   -2.74825
       H     0.14552  -12.12203  -12.12653
       O     0.48397  -13.04704  -12.12527
      H1     0.63972  -13.04884  -11.18238
       H     5.25986   -6.79410   -9.70004
       O     5.50246   -7.05696  -10.63910
      H1     4.63877   -7.48003  -10.85263
       H     6.67131  -11.41648   -4.53108
       O     6.89520  -12.30646   -4.32608
      H1     7.60659  -12.49556   -4.91241
       H     3.58601   -9.25906   -9.37710
       O     3.75219   -9.59019   -8.42294
      H1     3.41287  -10.50086   -8.25908
       H     6.55770  -12.72266   -9.38969
       O     5.97282  -12.78241   -8.64544
      H1     6.35060  -13.53403   -8.26885
       H    -0.93307   -9.99821  -13.04169
       O    -0.15094  -10.51607  -12.96213
      H1     0.41505  -10.06877  -12.27704
       H     7.15073   -9.97340   -8.83143
       O     6.90475   -9.95062   -7.94672
      H1     5.96427  -10.00844   -8.16151
       H     6.55095   -7.74853   -7.35443
       O     7.28098   -7.43308   -6.83645
      H1     7.63625   -8.17722   -6.43278
       H     8.75263  -12.61674  -10.45914
       O     7.86988  -12.27375  -10.72347
      H1     7.97132  -11.32354  -10.63337
       H     4.19572  -11.35255  -11.54204
       O     4.72550  -10.57143  -11.48806
      H1     5.53458  -10.99987  -11.78346

