90
frame 3 | Written by MDAnalysis XYZWriter (release 2.4.3)
       H    15.43238    4.77422    4.09004
       O    14.96824    5.49892    4.52716
      H1    14.06797    5.20897    4.37673
       H    18.32941   11.67646    2.91156
       O    17.46678   11.29649    3.17680
      H1    17.78087   10.44460    3.45861
       H    17.07518    8.19042    6.82583
       O    16.37835    7.95343    6.21645
      H1    16.31742    6.99944    6.37964
       H    14.74705    2.65380   -1.43265
       O    14.87414    2.17971   -0.56024
      H1    15.77806    1.77832   -0.59980
       H    16.51771   10.93404    0.17565
       O    17.22284   10.44000    0.59944
      H1    17.19395   10.83397    1.45273
       H    16.15079    0.38556    3.80024
       O    16.25314   -0.59299    3.89631
      H1    15.91958   -1.03846    3.06990
       H    16.67067    8.88481   -0.22742
       O    16.55058    7.91404   -0.25344
      H1    17.05134    7.55633    0.51449
       H    17.65330    7.12615    2.98385
       O    17.64919    6.56975    2.16654
      H1    16.84421    6.07687    2.26891
       H    17.16467    8.52873   -3.90675
       O    16.42856    8.76426   -4.50102
      H1    15.68082    8.85349   -3.93632
       H    13.96117    4.92564   -1.53172
       O    13.75048    4.23179   -2.18293
      H1    12.78078    4.32193   -2.08235
       H    18.38188   -0.87449    6.43211
       O    19.11360   -0.23381    6.34816
      H1    19.22891    0.03927    7.29072
       H    15.18208    4.05526    1.20456
       O    15.99314    4.28221    1.58868
      H1    16.28078    3.41554    1.96031
       H    17.72254    3.42987    6.90260
       O    17.57958    2.64197    6.39739
      H1    18.38068    2.21882    6.74928
       H    16.68636    6.44582   -3.27288
       O    16.51116    5.53654   -3.04567
      H1    15.55036    5.48876   -3.03455
       H    14.48841    6.07035    2.86331
       O    13.83189    6.21257    2.19960
      H1    13.53731    7.14607    2.28456
       H    15.97050    2.64861   -4.14044
       O    16.38581    1.99848   -3.49744
      H1    17.28094    1.83908   -3.89321
       H    18.24742   -2.34751    2.61981
       O    19.11355   -1.98100    2.85973
      H1    19.06038   -1.08672    2.98165
       H    18.37821    4.09950    3.30173
       O    18.50542    4.51601    4.21094
      H1    18.47873    3.73595    4.81758
       H    14.91307    6.94722   -0.39494
       O    14.18830    6.37157   -0.56788
      H1    13.82178    6.11573    0.31453
       H    19.08967    3.18048    1.57115
       O    18.36866    2.62964    1.83527
      H1    18.77613    1.82408    2.19514
       H    15.00536    5.08371    6.29742
       O    15.18125    5.40302    7.20814
      H1    14.28159    5.77963    7.41789
       H    19.85844   10.54898   -0.46035
       O    19.44048   11.24622   -1.07254
      H1    18.56283   10.88716   -1.15578
       H    19.55640    2.11570   -3.94433
       O    18.96390    1.41610   -4.15604
      H1    19.52048    0.66106   -3.97067
       H    18.56072    7.20304    8.73388
       O    18.88774    7.96759    8.23829
      H1    19.27297    7.59232    7.41792
       H    17.63700    4.61508   -2.10769
       O    18.34704    3.97308   -1.80598
      H1    18.68014    4.31254   -0.93044
       H    20.06752    4.91608    1.27487
       O    19.51583    5.09559    0.44863
      H1    18.71153    5.54784    0.78968
       H    14.55663    1.92153    4.33284
       O    15.52321    2.14598    4.15269
      H1    15.85163    2.33619    5.05418
       H    19.08309    7.72868   -3.04003
       O    18.08280    7.75011   -2.82832
      H1    18.01400    7.85927   -1.86970
       H    17.32775    8.60371    4.70435
       O    17.66812    8.63680    3.81528
      H1    18.60422    8.61641    4.00484
       H    17.76744    2.21040    0.32799
       O    17.50379    1.65396   -0.40192
      H1    17.70392    2.32095   -1.11692

