90
frame 8 | Written by MDAnalysis XYZWriter (release 2.4.3)
       H    12.10407   -6.43965    9.20052
       O    11.19496   -6.49505    9.58906
      H1    11.08712   -5.71304   10.17895
       H     3.93486   -2.43416   12.77800
       O     4.63357   -2.50424   12.10396
      H1     4.31972   -2.01704   11.33185
       H     7.56493   -3.35124   12.34992
       O     7.56007   -3.41185   11.38593
      H1     6.97820   -4.18173   11.26545
       H    14.12583   -6.32840    9.54040
       O    13.80161   -6.71344    8.68713
      H1    13.85069   -6.01433    8.03264
       H     4.39591   -4.23435    8.08053
       O     5.06709   -4.36808    8.76743
      H1     4.57556   -4.72273    9.56141
       H    11.89085   -2.47164    6.62728
       O    11.85188   -2.25202    7.57898
      H1    12.60198   -1.59299    7.70377
       H     8.56668   -8.40188   13.96187
       O     9.15213   -7.69638   13.55170
      H1     9.15995   -7.90276   12.61235
       H    11.39209   -5.97505   14.44408
       O    11.54377   -6.43333   13.63349
      H1    10.87741   -7.11581   13.48174
       H    13.50567   -1.69488   13.24774
       O    13.39509   -0.73230   13.25842
      H1    13.67983   -0.57802   12.30661
       H     7.60942   -6.55881    8.30564
       O     8.14048   -5.80850    8.69230
      H1     9.06211   -5.92487    8.46125
       H     6.45893   -7.19770   11.06114
       O     6.84858   -6.31441   11.17711
      H1     7.32814   -6.12456   10.33676
       H    10.43386   -9.13753   10.88750
       O     9.76063   -8.47122   10.71654
      H1    10.16994   -7.75752   10.20623
       H    13.40505   -3.90634    7.59887
       O    13.78292   -4.53145    6.95959
      H1    13.52516   -4.05089    6.14613
       H     9.44364   -0.35289   12.79494
       O     9.89859   -0.93452   12.14039
      H1     9.23313   -1.08985   11.39316
       H     8.23574   -1.32827    9.62460
       O     7.87896   -0.93472   10.43802
      H1     7.47813   -1.73435   10.80548
       H    13.59157   -6.70025   11.82197
       O    14.38767   -6.16265   11.68986
      H1    14.26848   -5.38142   12.27835
       H     6.49047    0.00774   10.21392
       O     5.65563    0.55204   10.03562
      H1     5.66571    1.31787   10.60484
       H     7.93674   -4.72881   14.31938
       O     8.01128   -3.78490   14.19816
      H1     7.91166   -3.46880   15.13566
       H     4.23353   -4.32291   11.51404
       O     4.28453   -5.25673   11.22756
      H1     5.19054   -5.53559   11.33482
       H    10.17969   -2.01185    7.77899
       O     9.30516   -1.70835    8.10991
      H1     8.60908   -2.26260    7.77465
       H    12.23302   -1.86468   10.30972
       O    12.07189   -0.89274   10.39721
      H1    11.29718   -0.86778   11.10225
       H     5.71996   -1.41733   12.76315
       O     6.36701   -0.87210   13.24603
      H1     6.16934   -1.16997   14.11746
       H    11.04348   -4.79378    6.44247
       O    10.72130   -5.59196    6.91393
      H1    11.10741   -5.51523    7.80486
       H     6.46537   -6.76305   14.36674
       O     7.04113   -6.40714   15.04847
      H1     7.86744   -6.80185   14.79203
       H     6.41592   -4.00485    7.82450
       O     7.01282   -3.56870    7.21151
      H1     7.68274   -4.24593    7.26899
       H    14.00311   -4.06036   14.16390
       O    14.17435   -3.56447   13.37174
      H1    14.95141   -2.99578   13.47682
       H    11.88751   -3.82073   10.53893
       O    12.76119   -3.54872   10.13202
      H1    13.37360   -3.41754   10.81769
       H     8.18318    2.54411   11.01794
       O     8.91143    1.88982   11.03460
      H1     8.45280    1.07264   10.98834
       H     9.57052   -4.08800   11.25440
       O    10.36939   -4.65556   11.35165
      H1    10.35950   -5.14222   12.17346
       H     9.60383   -3.00603   14.15034
       O    10.52068   -2.64960   14.10571
      H1    10.42964   -2.04567   13.34559

