90
frame 9 | Written by MDAnalysis XYZWriter (release 2.4.3)
       H   -11.82197   10.17043    3.04288
       O   -12.55755   10.71560    2.88803
      H1   -12.19480   11.60562    2.91824
       H   -11.82931   15.74685   -2.08546
       O   -12.28368   15.87717   -1.24216
      H1   -11.85642   15.40267   -0.53815
       H   -16.83727   12.21719   -4.31073
       O   -17.66282   12.63898   -4.08286
      H1   -18.30410   12.12845   -4.57170
       H   -13.20817    9.38801   -0.21950
       O   -12.72460    8.68661   -0.65909
      H1   -12.47583    8.15614    0.10969
       H   -15.30632    8.48607   -3.04768
       O   -14.47968    7.99924   -2.95965
      H1   -13.86276    8.46192   -2.42064
       H   -13.16376   15.39611   -3.40652
       O   -14.01388   14.94127   -3.54459
      H1   -14.72595   15.53264   -3.25997
       H    -9.31280   11.48742   -0.35784
       O    -8.47840   11.41184    0.01797
      H1    -7.98498   12.15093   -0.30850
       H   -14.00313   14.19271   -5.05603
       O   -14.32495   13.76005   -5.88072
      H1   -13.74828   13.94016   -6.60824
       H   -11.27739   14.81733   -4.33530
       O   -11.16809   15.72294   -3.90111
      H1   -10.24765   15.96960   -4.14135
       H   -15.73960   17.43048   -2.63656
       O   -15.99332   16.56146   -2.97695
      H1   -16.42673   16.82796   -3.80693
       H   -16.85082   14.78838    0.01870
       O   -16.65800   14.23652    0.76039
      H1   -17.48506   14.19197    1.18632
       H   -15.49637   13.29369    1.91692
       O   -15.09570   12.74863    2.58468
      H1   -14.74443   11.99669    2.12518
       H   -14.00115   13.62326   -2.22263
       O   -13.79232   12.87317   -1.65955
      H1   -14.53738   12.24999   -1.72089
       H   -16.82411   10.01316   -3.53733
       O   -16.87838    9.03488   -3.55741
      H1   -16.97803    8.82785   -4.49155
       H    -8.93592   14.07504   -2.10188
       O    -9.54460   14.14109   -1.34950
      H1    -9.93424   13.29318   -1.25832
       H   -11.58134   10.94092   -2.87914
       O   -12.22474   11.27409   -3.48478
      H1   -12.92039   11.82106   -3.07539
       H   -14.36349    9.98109    1.25499
       O   -14.40733   10.87030    0.87858
      H1   -15.27184   11.00272    0.47841
       H   -15.21813   16.91825    1.84126
       O   -14.68865   16.16224    2.10743
      H1   -14.90689   15.52781    1.42835
       H   -18.59897   13.69375   -1.56050
       O   -18.86200   12.72823   -1.34568
      H1   -18.71546   12.22670   -2.23274
       H   -11.44228    9.83734   -4.71539
       O   -10.73740    9.34871   -5.10407
      H1   -10.86159    8.37954   -4.84064
       H   -11.78832   11.25043    0.25306
       O   -11.34439   11.87432   -0.35355
      H1   -12.13334   12.24751   -0.82506
       H   -15.06048   10.53010   -5.90495
       O   -15.51504   11.15264   -5.32722
      H1   -15.06285   12.03644   -5.46965
       H   -14.30702    7.59728    1.96100
       O   -14.91937    8.37833    1.92602
      H1   -15.50109    8.07745    1.20429
       H   -18.03670    9.30819    0.04382
       O   -17.33557    9.25872   -0.60108
      H1   -17.79386    8.97849   -1.42366
       H    -9.74693    8.45595   -2.18890
       O   -10.33675    9.20482   -2.00814
      H1   -11.16365    8.92211   -1.66033
       H   -17.48921   15.72102   -2.22767
       O   -17.97702   15.34110   -1.48495
      H1   -18.31616   16.10953   -1.05325
       H   -16.67524   10.79436   -1.10714
       O   -16.21947   11.59964   -1.32825
      H1   -16.78458   12.28302   -0.99641
       H   -11.50946   12.57937   -4.44595
       O   -10.99768   13.22719   -4.99154
      H1   -10.10994   13.28902   -4.57235
       H   -11.11533   13.54302    0.92316
       O   -11.21717   14.44736    1.32043
      H1   -10.47900   14.95781    0.98161
       H   -15.84095   14.59621   -5.79400
       O   -16.76577   14.67583   -5.75283
      H1   -17.14878   14.06645   -5.08886

