90
frame 8 | Written by MDAnalysis XYZWriter (release 2.4.3)
       H    -6.32800  -16.89236   10.02289
       O    -5.88499  -16.39435    9.36692
      H1    -5.26541  -16.99677    8.93990
       H    -1.78799  -18.20508   16.76526
       O    -0.99944  -18.70366   16.53415
      H1    -0.48752  -18.74098   17.35454
       H    -5.94667  -17.41617   12.91372
       O    -6.19307  -16.46300   12.91066
      H1    -5.46750  -15.94954   12.45173
       H     0.24651  -12.14763   11.22637
       O     0.68811  -12.99789   11.30210
      H1     0.86660  -13.22179   10.37193
       H     2.98151  -19.22635   12.83792
       O     2.48868  -18.59698   13.38818
      H1     3.06354  -18.44646   14.17255
       H    -6.20807  -19.78691   14.47585
       O    -6.64180  -19.08840   13.98340
      H1    -7.11982  -19.49189   13.27986
       H    -7.11564  -13.80041   13.97903
       O    -6.40898  -14.06023   14.65616
      H1    -5.93682  -14.78748   14.12348
       H    -1.28286  -16.67817   18.80646
       O    -2.16169  -16.95720   18.47495
      H1    -2.75751  -16.21773   18.36735
       H    -2.06595  -16.35704    8.47311
       O    -2.11010  -15.79739    7.62699
      H1    -2.26229  -16.45190    6.95609
       H    -4.66076  -15.58901   10.63848
       O    -4.56461  -15.06270   11.46547
      H1    -3.73865  -15.18841   11.96456
       H     4.27914  -18.02854    7.03746
       O     4.35943  -17.72161    7.93720
      H1     4.53995  -18.52794    8.45885
       H    -1.30127  -18.03952    9.53659
       O    -1.97798  -17.40715    9.78431
      H1    -2.17899  -17.34037   10.73577
       H     3.34725  -19.69619   16.71929
       O     3.87295  -19.04295   16.22436
      H1     4.27414  -18.43565   16.88581
       H    -4.90366  -19.56499   17.80752
       O    -4.96755  -19.57738   18.74527
      H1    -4.13547  -19.15752   19.03339
       H    -4.09645  -18.78112   15.45348
       O    -4.39993  -19.48142   16.07796
      H1    -3.76476  -20.21037   15.95298
       H    -4.25114  -18.95582    8.14433
       O    -4.32660  -18.57470    9.02080
      H1    -3.46941  -18.29571    9.30477
       H     3.19050  -17.31731   12.41035
       O     3.77971  -16.65595   11.93305
      H1     3.18298  -16.17764   11.33820
       H    -0.69591  -13.48408   12.31314
       O    -1.31147  -13.36415   13.08427
      H1    -2.10821  -12.92753   12.69289
       H    -1.00618  -20.14930   12.83568
       O    -1.62047  -19.45762   12.50499
      H1    -1.34673  -18.72309   13.04025
       H     1.23321  -14.38893   15.01584
       O     0.65879  -14.77099   15.71109
      H1     0.10816  -15.46953   15.39144
       H     0.44267  -18.70514    8.11856
       O    -0.10257  -19.13943    8.73472
      H1    -0.29944  -19.97714    8.29363
       H     2.05768  -16.99031   17.70939
       O     2.19078  -16.08277   17.47460
      H1     1.53794  -15.82612   16.80551
       H     3.55951  -16.29646    8.71993
       O     3.21407  -15.70206    9.39005
      H1     2.44900  -15.28024    9.00759
       H    -3.66442  -15.75235   15.90231
       O    -3.81580  -16.25657   15.09138
      H1    -3.34057  -15.74082   14.44511
       H     1.27662  -18.99923   19.12383
       O     1.09578  -18.69536   18.22122
      H1     1.29246  -19.39912   17.60173
       H    -2.93227  -18.85411    6.32814
       O    -3.44290  -19.61000    6.57821
      H1    -2.76347  -20.19817    6.90322
       H     0.85156  -17.64062   13.83093
       O     0.03572  -17.21426   14.11360
      H1    -0.09887  -17.52697   15.03705
       H     6.81779  -17.99318   11.29253
       O     6.15422  -17.45776   10.80758
      H1     5.41151  -17.17957   11.32703
       H     5.28327  -15.32186   13.99206
       O     4.89589  -15.67784   14.77697
      H1     4.26939  -16.31942   14.55619
       H    -1.74380  -14.80870   13.03808
       O    -2.14894  -15.69316   12.98915
      H1    -1.35116  -16.22171   13.10623

