90
frame 8 | Written by MDAnalysis XYZWriter (release 2.4.3)
       H     2.86099    4.60521  -10.92577
       O     3.30820    3.80924  -10.63327
      H1     3.63372    4.06159   -9.78606
       H     0.10837    6.62853  -12.42091
       O    -0.89238    6.50467  -12.30606
      H1    -0.87665    5.69712  -11.83024
       H    -2.32582    7.47701  -17.61318
       O    -2.48665    7.94909  -16.73563
      H1    -2.87556    8.85258  -16.93205
       H     1.70733    9.55667  -10.17251
       O     1.51448    9.16765  -11.01929
      H1     0.61724    8.85672  -10.81822
       H     1.34679    2.86957  -15.47198
       O     1.05492    3.65657  -14.89352
      H1     0.93179    3.40141  -13.99422
       H    -1.45407   10.04609  -14.26535
       O    -1.46242   10.94076  -14.74238
      H1    -2.01862   10.78362  -15.49366
       H     4.17075    9.64683  -11.90810
       O     4.99035    9.50133  -11.33505
      H1     5.67648   10.07855  -11.81166
       H     0.28654    4.35293  -17.69031
       O     0.55932    4.41540  -18.59023
      H1     1.34954    5.01722  -18.63845
       H    -0.42716    2.80950   -9.15148
       O     0.43529    3.16705   -9.17512
      H1     0.49726    3.55663  -10.10356
       H     2.80184    8.84390  -18.04255
       O     2.90078    8.27534  -18.83003
      H1     3.06508    8.96776  -19.52833
       H     4.55386    3.23435  -14.72947
       O     4.40780    2.26397  -14.64853
      H1     5.23102    1.75696  -14.74211
       H     2.35799    7.27048  -11.07937
       O     2.63894    6.38660  -11.26057
      H1     2.76051    6.50728  -12.23904
       H     1.13418    8.47948  -19.11355
       O     0.19720    8.46096  -19.38666
      H1    -0.30359    7.91618  -18.83883
       H     4.28802    5.72155  -12.00182
       O     5.20880    5.61084  -12.32373
      H1     5.41554    4.68714  -12.14286
       H     2.49555    6.75497  -14.67293
       O     1.89130    6.34231  -14.02787
      H1     1.65855    5.53235  -14.42675
       H     1.31342    2.61406  -12.00422
       O     0.58248    3.24855  -12.04837
      H1    -0.26844    2.74702  -12.16268
       H    -0.55419    7.79589  -16.05627
       O     0.27960    8.10071  -15.63859
      H1     0.63901    7.41209  -15.04435
       H     1.26842    9.60982  -16.41919
       O     2.03446    9.95721  -16.97488
      H1     2.76558    9.70585  -16.34119
       H     3.89857    1.71032  -13.02698
       O     3.56349    1.57291  -12.11754
      H1     3.65069    2.44106  -11.60943
       H     5.08870    5.09789  -14.30779
       O     4.45765    4.97211  -15.01837
      H1     4.90366    4.95862  -15.83419
       H    -1.78538    1.44841  -13.57894
       O    -1.09015    1.35374  -14.30524
      H1    -0.48008    0.62246  -13.98167
       H    -1.72113    3.77930  -16.70612
       O    -1.09766    4.39706  -16.34207
      H1    -0.84805    4.02250  -15.51780
       H    -3.20993    6.70542  -15.21840
       O    -3.19071    5.94866  -14.62008
      H1    -2.36383    5.53680  -14.82049
       H     3.53339    3.23873  -17.52332
       O     4.37967    3.57063  -17.84393
      H1     4.10362    4.22441  -18.47122
       H    -2.60517    5.57158  -18.99178
       O    -1.80591    6.07008  -18.84658
      H1    -1.06245    5.47706  -18.67747
       H     6.17310    7.65783  -13.95768
       O     6.24933    8.57180  -13.61498
      H1     5.92263    8.54219  -12.70216
       H     3.24322    1.72222  -15.66332
       O     2.66580    1.23171  -16.26632
      H1     3.19256    0.69067  -16.84835
       H    -2.10899    7.96544  -12.38828
       O    -2.72527    8.69614  -12.62786
      H1    -2.20996    9.53316  -12.42381
       H     2.38048   10.61038  -13.61829
       O     2.95882    9.86347  -13.28207
      H1     2.43581    9.32230  -12.71032
       H     4.60992    8.42688  -15.59033
       O     3.63473    8.49549  -15.39220
      H1     3.56952    9.07966  -14.59511

