90
frame 0 | Written by MDAnalysis XYZWriter (release 2.4.3)
       H    16.15795    9.83342   -6.39106
       O    16.11685   10.08798   -7.34551
      H1    15.29581    9.63068   -7.66311
       H    17.44115   11.17071    2.23834
       O    16.70419   10.66185    2.00506
      H1    16.40317   10.40287    2.86332
       H    14.05619    3.67359   -1.47564
       O    14.39693    3.52567   -0.58958
      H1    15.31056    3.86087   -0.76009
       H    15.95340   10.15201   -0.75996
       O    16.77938    9.66372   -0.62392
      H1    16.77903    9.76381    0.34651
       H    12.66917    6.83413   -4.65964
       O    12.21371    7.62525   -4.84495
      H1    12.78562    8.36080   -4.62666
       H    17.40719    7.90823   -0.72917
       O    17.50388    7.09615   -1.19642
      H1    17.50811    6.47243   -0.44907
       H    17.27302    7.22645    2.19664
       O    17.18102    6.52061    1.57294
      H1    16.20309    6.56013    1.47374
       H    16.43661    8.82536   -4.22695
       O    16.00010    9.57292   -4.64867
      H1    15.13963    9.72387   -4.19244
       H    13.81905    5.64193   -2.44765
       O    13.50672    4.83875   -2.84988
      H1    12.52834    4.88819   -2.64282
       H    15.82703    3.06357   -4.96186
       O    15.46722    2.35193   -5.54240
      H1    14.51112    2.46414   -5.29768
       H    15.09692    1.23364    1.03244
       O    14.50045    1.87454    1.44141
      H1    14.28213    2.45598    0.64243
       H    12.81509   10.79240   -4.04615
       O    13.36045   10.12498   -3.51951
      H1    12.87414   10.27306   -2.71347
       H    19.36756    4.91122   -6.61391
       O    18.65249    5.47601   -6.94785
      H1    18.72537    6.02470   -6.12613
       H    14.44464   12.09924   -0.68477
       O    14.67691   11.60735   -1.46831
      H1    14.07008   10.84921   -1.36760
       H    13.95562    3.60492    2.61816
       O    13.78335    4.55906    2.93633
      H1    12.95884    4.38656    3.38402
       H    12.32754    8.35807    2.13032
       O    13.22018    8.72836    1.95176
      H1    13.17805    8.75568    1.00238
       H    18.73575   11.04839   -3.87884
       O    19.41212   10.48407   -4.28677
      H1    19.36068   10.83371   -5.18728
       H    16.33957   11.42318   -3.96828
       O    16.60452   12.26635   -3.51679
      H1    15.97056   12.30849   -2.73371
       H    16.34848    5.46002   -3.99065
       O    16.11938    4.54188   -3.84725
      H1    15.18835    4.64280   -3.60760
       H    14.10469    5.68292    1.59391
       O    14.45093    6.39896    1.07918
      H1    14.01905    7.15071    1.47003
       H    15.36990    7.30679   -2.01691
       O    14.50467    7.05503   -1.64136
      H1    14.74806    6.63570   -0.77389
       H    19.79513   11.03378   -1.28170
       O    18.94469   11.47652   -1.29654
      H1    18.23028   10.75768   -1.13839
       H    19.09407    2.16671   -3.91990
       O    18.76189    1.47428   -4.52636
      H1    19.52806    0.83806   -4.42764
       H    12.11789    9.19049   -0.74091
       O    13.08531    9.27279   -0.58506
      H1    13.42793    8.49261   -1.04363
       H    17.69997    9.41084   -7.87635
       O    18.51707    8.88637   -7.88741
      H1    18.58591    8.64713   -6.93788
       H    17.27113    3.83708   -1.99974
       O    17.13554    3.76212   -1.02000
      H1    17.99068    4.17507   -0.69255
       H    19.62828    4.20777    0.72491
       O    19.22853    4.93949    0.25712
      H1    18.57412    5.17310    0.93648
       H    18.11581    7.50553   -4.14660
       O    17.27716    7.14982   -3.92374
      H1    17.39658    6.94740   -2.95494
       H    18.18944    8.36182    4.52328
       O    18.38015    7.98627    3.69041
      H1    18.85724    8.70983    3.31084
       H    18.25777    2.25261    1.36824
       O    18.30089    1.83343    0.53450
      H1    17.74614    2.37376   -0.13996

