90
frame 0 | Written by MDAnalysis XYZWriter (release 2.4.3)
       H     7.79161    0.21368   -0.46204
       O     7.58161   -0.56905    0.06593
      H1     8.41867   -0.81354    0.52556
       H     6.08049   -1.69219    2.84546
       O     5.96132   -1.98826    1.90086
      H1     6.51162   -1.40610    1.36121
       H    10.91585   -1.20110   -0.60262
       O    11.49413   -1.26772   -1.41753
      H1    11.98134   -2.14172   -1.35586
       H     5.67463   -3.22529    0.62986
       O     5.59956   -3.90345   -0.01631
      H1     6.27204   -3.72662   -0.66739
       H    13.59911   -4.74653   -4.27605
       O    14.02361   -4.07891   -3.70388
      H1    14.89777   -4.45728   -3.46419
       H    13.08559   -4.32338   -1.75189
       O    12.25893   -4.02130   -1.30400
      H1    11.63610   -3.99749   -2.05113
       H    11.48957   -3.06026   -6.27638
       O    11.78347   -2.56875   -5.47490
      H1    11.31653   -2.92311   -4.68508
       H    12.39707    3.07584   -0.76974
       O    12.31593    3.99909   -0.84046
      H1    13.18136    4.35651   -0.94144
       H     9.39162   -0.08089    2.64324
       O     8.92305   -0.03553    3.46604
      H1     8.75847    0.92464    3.58941
       H    14.62940   -1.35833   -2.69186
       O    15.02171   -1.47009   -1.77301
      H1    15.61838   -0.72197   -1.61948
       H     8.80625   -4.29829   -0.36438
       O     8.28018   -3.88488   -1.00984
      H1     8.80148   -3.15378   -1.41735
       H    15.99613    1.30719   -0.55395
       O    15.61698    1.48917   -1.39956
      H1    16.31822    1.88451   -1.97348
       H    10.01885    0.41594    0.89765
       O    10.07012   -0.53591    0.98242
      H1    10.96122   -0.82864    1.29836
       H    14.42460   -3.60873    1.00691
       O    14.02068   -2.75701    0.97709
      H1    14.15820   -2.37288    0.16599
       H     9.37042    1.74444   -4.37831
       O     9.74424    0.80860   -4.13545
      H1    10.65346    1.09574   -3.99796
       H    13.60630    1.27691   -1.40630
       O    12.61669    1.37148   -1.31474
      H1    12.28822    0.52822   -1.16762
       H    12.72443   -2.23363    1.95500
       O    11.99219   -1.85592    2.46287
      H1    11.87245   -2.43032    3.21009
       H    11.37176    1.56797    1.83955
       O    10.88502    2.13978    1.21797
      H1    11.14216    3.01130    1.50349
       H     8.53933   -3.60615    2.76455
       O     9.06128   -3.45610    3.58367
      H1     9.69729   -4.17551    3.69496
       H    12.24325   -0.20749    2.94649
       O    12.58428    0.69452    3.13273
      H1    12.62169    0.63545    4.08260
       H    12.03115    2.56040   -4.30131
       O    12.38010    1.72357   -3.97014
      H1    12.41851    1.82805   -2.95601
       H    13.01808   -5.26833   -0.12298
       O    13.57827   -5.77546    0.48635
      H1    13.65891   -6.60607   -0.01867
       H     6.96254    3.28759   -2.86326
       O     7.16604    3.36123   -1.95148
      H1     7.88215    2.73528   -1.82960
       H     6.35064   -6.08432   -2.44269
       O     6.36549   -5.23629   -2.87825
      H1     7.21585   -4.99333   -2.56467
       H     7.56157   -1.21366   -2.62912
       O     8.19271   -1.49656   -3.31557
      H1     8.70780   -0.65598   -3.53091
       H    15.17665   -1.47016    2.70563
       O    15.20778   -0.53134    2.76943
      H1    14.33252   -0.14270    2.83416
       H     9.67348   -4.43201   -3.50170
       O    10.12974   -3.56775   -3.38087
      H1     9.48314   -2.82003   -3.33611
       H    13.34980    0.19214   -4.07555
       O    13.98076   -0.49446   -4.43939
      H1    13.38009   -1.19089   -4.65782
       H    10.42918   -0.58317    6.10070
       O    10.59758    0.11026    5.51212
      H1    10.01999   -0.08516    4.73172
       H     9.47082    1.27224   -1.90757
       O     9.13545    1.43605   -0.99429
      H1     9.79405    1.86039   -0.42881

