90
frame 8 | Written by MDAnalysis XYZWriter (release 2.4.3)
       H   -10.96688    7.50795   -5.19831
       O   -10.02307    7.42683   -4.95232
      H1   -10.01572    7.42969   -4.01964
       H    -6.60832    3.52831   -4.54999
       O    -6.10358    3.26706   -3.74469
      H1    -6.58165    2.43315   -3.43049
       H   -10.69375    4.32686   -4.23483
       O    -9.89989    4.56878   -4.70983
      H1    -9.96057    5.51750   -4.77845
       H   -15.84431    5.52257   -2.76793
       O   -14.88272    5.50990   -2.64024
      H1   -14.55823    6.40717   -2.79273
       H    -9.05114   -1.72913    2.27672
       O    -8.07782   -1.55401    2.17668
      H1    -7.82813   -0.70297    2.67045
       H   -13.32453    9.37323   -0.32638
       O   -12.66362    9.15717   -1.01469
      H1   -12.51239    8.25065   -0.78491
       H    -9.79043    6.14480    4.35709
       O    -9.29827    5.99298    3.50233
      H1    -8.40718    5.69512    3.76075
       H    -6.48951    4.99556    0.98163
       O    -6.40818    4.46851    0.15738
      H1    -6.85359    3.60874    0.23509
       H   -10.61383    0.14337    3.10397
       O   -10.33922    0.71014    2.32617
      H1   -10.15238    0.03137    1.66714
       H    -8.79900    7.79540    1.50980
       O    -9.45129    8.09304    0.80906
      H1    -9.05391    8.83091    0.46377
       H   -15.01010    4.04927    0.33451
       O   -14.59659    4.87609    0.04264
      H1   -14.67419    4.83460   -0.91358
       H   -11.95315    4.47492    2.23897
       O   -12.62814    5.11194    2.10457
      H1   -13.33752    4.65283    1.66803
       H    -8.92766    1.06548   -2.96502
       O    -7.97966    1.09874   -2.95258
      H1    -7.74418    0.20177   -2.74445
       H   -10.50781    0.68416   -1.41576
       O   -10.91340    0.90868   -2.25335
      H1   -11.50738    1.66199   -2.05564
       H    -7.30205    1.22485    4.26196
       O    -7.54629    0.84734    3.42809
      H1    -8.45890    0.98820    3.27423
       H   -10.69862    3.64112    0.87127
       O   -10.82836    3.31870   -0.05390
      H1   -11.77903    3.37320   -0.24077
       H    -6.99084    4.88668   -1.17894
       O    -7.42991    5.16914   -2.05272
      H1    -7.04280    4.61700   -2.74223
       H   -12.97168    5.18644    3.86488
       O   -13.08307    5.42129    4.81691
      H1   -13.23152    4.58315    5.20620
       H   -13.26465    0.21922    1.32491
       O   -12.88163    1.02238    0.94768
      H1   -12.05688    1.15855    1.47082
       H   -12.66166    3.00256   -4.80282
       O   -12.51138    3.61724   -4.06588
      H1   -13.29895    4.21118   -4.10521
       H   -13.47963    7.38260    1.87713
       O   -14.23482    7.99326    2.07952
      H1   -15.04250    7.57048    1.72957
       H   -10.15886    4.15106    3.16062
       O   -10.77251    3.51530    2.74537
      H1   -10.41881    2.64492    2.82792
       H   -12.00870   -0.34993   -2.95806
       O   -12.52355   -1.06850   -3.31933
      H1   -12.47664   -1.76991   -2.59432
       H   -14.29305    1.98987    1.39935
       O   -15.09014    2.58012    1.38800
      H1   -15.84004    2.05392    1.67818
       H    -7.37526    7.06330   -1.50477
       O    -7.08235    7.92077   -1.22676
      H1    -6.17158    7.97694   -1.51751
       H   -11.80006    5.94634    0.37767
       O   -11.41908    6.59964   -0.19674
      H1   -10.70230    7.08032    0.31974
       H    -9.45310    5.89110   -2.47170
       O    -9.76394    6.77276   -2.39121
      H1   -10.34927    6.71101   -1.68092
       H   -15.69094    6.14091    0.36875
       O   -16.19794    6.87088    0.76864
      H1   -16.53336    7.34422   -0.03700
       H    -8.94102    2.58145   -0.13575
       O    -8.10295    2.12666   -0.25040
      H1    -7.92512    1.88306   -1.18120
       H    -9.20988   -1.17547   -0.17793
       O    -9.50668   -0.25979   -0.12125
      H1    -8.73146    0.28607   -0.04195

