90
frame 9 | Written by MDAnalysis XYZWriter (release 2.4.3)
       H     6.48301   -0.60047    2.45473
       O     6.77477   -1.43849    2.77485
      H1     6.75179   -2.01285    1.99800
       H     5.55101    2.38803   11.31386
       O     5.09419    1.65798   11.71348
      H1     5.35219    1.76002   12.65638
       H     6.49430    3.64593    3.98130
       O     6.28213    2.89907    4.54392
      H1     7.04383    2.71155    5.11698
       H     4.59644   -0.86775    5.62564
       O     3.83568   -0.24605    5.58784
      H1     4.02928    0.51464    6.23528
       H     5.42766    3.47760    5.87047
       O     4.97474    3.79839    6.68962
      H1     5.65938    4.35325    7.15034
       H    11.64994    2.41565    6.49825
       O    10.87330    2.84649    6.88668
      H1    10.13431    2.45511    6.47576
       H     9.30627   -2.43849    3.73895
       O     9.38520   -1.50459    3.47541
      H1     8.48154   -1.25812    3.26177
       H     8.17639    7.27899    4.73320
       O     8.12606    6.50857    5.34676
      H1     9.03670    6.28473    5.64967
       H    10.92978    5.77787    4.81693
       O    10.69289    5.57446    5.72642
      H1    11.23592    4.77501    6.00365
       H     8.57045    1.79614    7.10461
       O     8.41599    1.86150    6.17631
      H1     9.07935    1.25075    5.79757
       H     7.35683    5.66319    4.03650
       O     6.85540    5.33541    3.24212
      H1     7.43746    5.53901    2.50083
       H     7.52458    1.26996    2.19624
       O     6.53328    1.26260    2.25855
      H1     6.32131    1.62830    3.17372
       H     6.22736    6.40554    8.00260
       O     6.14320    5.60930    8.53716
      H1     5.39729    5.75913    9.08292
       H     9.49337   -0.08270   12.98565
       O     9.69236   -0.52891   12.15492
      H1     8.81260   -0.55119   11.67112
       H     8.53799   -1.63843    9.78600
       O     7.92068   -1.53759   10.52185
      H1     7.98197   -2.45161   10.90606
       H     6.31874   -0.79860   10.34531
       O     5.47819   -0.49272    9.99873
      H1     5.18317    0.15094   10.66842
       H     9.97666   -2.48603    7.72176
       O     9.42077   -1.89468    8.28481
      H1     8.51908   -2.27075    8.22459
       H    12.35751   -1.80246   10.99100
       O    12.34558   -1.33276   10.06267
      H1    11.36329   -1.32373    9.83406
       H     6.44816   -2.28041    6.24113
       O     5.83646   -2.22525    5.51092
      H1     6.39348   -2.00764    4.72933
       H    10.51993    7.85549    8.15431
       O    11.30678    7.46122    7.75196
      H1    11.12348    6.61559    7.36493
       H    11.11813    3.37479    8.66660
       O    11.06245    3.39961    9.62144
      H1    10.39328    2.72783    9.72237
       H     6.04976   -2.85871    8.48512
       O     6.93449   -2.94487    8.04154
      H1     7.07922   -3.89367    7.87000
       H    11.78749    2.36973    2.77793
       O    12.03737    1.63249    3.34975
      H1    11.32484    1.56405    4.02001
       H     4.99325    0.89946    8.33936
       O     4.45179    1.45263    7.76076
      H1     4.85479    2.25517    7.49033
       H    10.35368    4.76270   10.62474
       O    10.44536    5.52166   11.19744
      H1    11.41114    5.69501   11.23510
       H    12.43170    2.23281    9.70380
       O    13.07302    1.52242    9.71508
      H1    12.69795    0.71539   10.06851
       H     8.14232    2.02368   10.02165
       O     8.92801    1.51818    9.90928
      H1     9.13746    1.14777   10.76414
       H    10.00865   -0.39105    6.52290
       O    10.27614    0.02921    5.72980
      H1    10.00049   -0.50778    5.00691
       H     6.66504    4.21884    9.92148
       O     6.91239    3.53408   10.55863
      H1     7.11678    4.04659   11.32194
       H     9.83720    1.38189    1.12600
       O     9.31463    0.81398    1.79747
      H1     9.96055    0.14640    2.03895

