90
frame 0 | Written by MDAnalysis XYZWriter (release 2.4.3)
       H   -15.24278    4.11699   19.35919
       O   -15.24421    3.17820   19.17294
      H1   -15.99453    2.95194   18.63868
       H   -18.91433    3.49901   11.79750
       O   -18.39321    3.71180   10.99568
      H1   -17.67299    3.04093   11.05099
       H   -17.02768   -0.74389   12.14561
       O   -16.42894   -0.25992   12.74360
      H1   -17.02731   -0.23369   13.53337
       H   -10.43002   -3.46598   16.29783
       O   -11.02444   -2.88326   16.79479
      H1   -10.81358   -2.00619   16.45750
       H   -17.67568    3.23255   17.08519
       O   -17.08794    2.50073   16.89112
      H1   -16.35465    2.95869   16.45729
       H   -18.50599   -1.83881   14.12731
       O   -18.48563   -2.15801   13.22519
      H1   -18.17655   -3.06308   13.42608
       H   -13.75119   -0.90480   10.39922
       O   -13.35532   -1.49377    9.73087
      H1   -14.16608   -1.91918    9.42921
       H   -14.16698    3.56413   16.53371
       O   -14.82352    4.14570   16.15180
      H1   -14.69764    4.96105   16.62545
       H   -19.12505    5.87421   17.57654
       O   -18.20573    6.07676   17.26852
      H1   -18.25146    6.98159   16.95438
       H   -14.06883    1.85172   19.03104
       O   -13.36596    1.16021   18.82513
      H1   -13.85428    0.41745   19.02206
       H   -17.40598    1.00437   15.52912
       O   -17.31275    0.07030   15.25764
      H1   -16.40062   -0.13407   15.57322
       H   -18.64684   -0.24015   17.10390
       O   -19.34929   -0.75404   17.57323
      H1   -18.90977   -1.62112   17.36337
       H   -17.23046    4.49363   14.34467
       O   -18.07350    4.81159   14.69538
      H1   -17.91771    5.36950   15.51478
       H   -18.18574   -5.70727   13.65618
       O   -18.36590   -4.86504   14.14653
      H1   -17.77548   -4.75171   14.81651
       H   -13.98473   -0.37264   14.81316
       O   -14.47773   -0.00128   15.57332
      H1   -13.85096    0.75289   15.75294
       H   -15.68974    2.68453   12.48609
       O   -15.72687    1.98884   11.80147
      H1   -16.32953    1.32495   12.22001
       H   -14.02841   -4.85101   12.48454
       O   -14.48838   -4.80690   11.62461
      H1   -13.73557   -4.69372   11.04915
       H   -15.24370    5.12521   13.23906
       O   -15.68214    4.28444   13.48050
      H1   -15.23244    4.08483   14.34605
       H   -16.40996   -5.06557   11.58906
       O   -17.19369   -5.27436   11.04108
      H1   -17.61101   -5.93769   11.62003
       H   -18.29246    0.85190   10.07344
       O   -18.19848   -0.06358    9.82334
      H1   -17.44145   -0.07377    9.13161
       H   -13.32781   -3.23510   14.15823
       O   -13.15856   -4.11021   14.49273
      H1   -13.35031   -3.97146   15.46163
       H   -15.43723   -6.10418   18.75448
       O   -15.77075   -6.15966   17.83060
      H1   -16.27814   -6.98539   17.71955
       H   -15.41178   -1.17392   17.83066
       O   -14.49485   -1.53630   17.87587
      H1   -14.13463   -1.03991   17.05474
       H   -12.99656   -0.08936   11.91740
       O   -13.22954    0.68897   11.45841
      H1   -14.01180    1.03095   11.91889
       H   -12.06187    2.43949   11.71435
       O   -11.39421    3.05798   12.07924
      H1   -11.84232    3.53314   12.79926
       H   -13.17506   -2.11101   12.39890
       O   -13.60059   -1.56741   13.16470
      H1   -14.51028   -1.52195   12.85825
       H   -19.27398    3.97554   13.69881
       O   -19.83340    3.31477   13.20145
      H1   -19.47562    2.47647   13.55781
       H   -15.82208   -6.35077   15.60680
       O   -16.17281   -6.93877   14.92913
      H1   -15.50023   -6.81510   14.24066
       H   -18.88942   -3.49089   16.62395
       O   -17.98125   -3.20208   16.89428
      H1   -17.88390   -3.69084   17.74796
       H   -13.10936    1.54606   17.25599
       O   -12.91865    2.11216   16.44779
      H1   -11.95698    2.11890   16.39017

