90
frame 8 | Written by MDAnalysis XYZWriter (release 2.4.3)
       H    14.16877  -13.33383    3.44933
       O    13.54433  -12.90718    2.88452
      H1    12.82759  -13.54210    2.61047
       H     8.17651  -12.08781    6.24679
       O     8.68570  -12.83964    6.64027
      H1     8.19765  -13.15562    7.39398
       H    12.10407   -6.43965    9.20052
       O    11.19496   -6.49505    9.58906
      H1    11.08712   -5.71304   10.17895
       H    12.22684  -15.38515   11.74960
       O    11.97075  -15.16718   10.85744
      H1    11.20486  -15.73825   10.62147
       H     8.56339   -9.00886    7.12764
       O     8.28160   -8.54571    6.37420
      H1     8.92422   -7.90157    6.23093
       H     7.37336  -10.93329   10.82737
       O     6.79757  -10.76242   10.04924
      H1     7.39079  -10.43871    9.33652
       H     5.29069   -7.52059    7.45172
       O     6.04489   -7.62871    8.06009
      H1     6.77118   -8.08592    7.59205
       H     7.82357  -14.13504    5.66841
       O     7.49724  -14.90187    5.19491
      H1     7.68210  -14.75324    4.26854
       H    14.12583   -6.32840    9.54040
       O    13.80161   -6.71344    8.68713
      H1    13.85069   -6.01433    8.03264
       H    10.65004  -11.97564   13.96469
       O    10.84493  -11.05567   14.05831
      H1    10.71983  -10.63113   13.18571
       H    15.49019  -13.70594    5.35857
       O    15.83348  -13.72660    4.47558
      H1    16.50826  -13.01570    4.36024
       H    11.62845   -9.11306    5.81393
       O    11.92997   -9.94033    6.18436
      H1    12.71579   -9.59805    6.63268
       H    15.77372  -11.55789    9.28723
       O    15.02919  -11.55424    8.66255
      H1    14.41705  -12.15467    9.06445
       H    12.67289  -11.21912    3.40366
       O    11.89950  -10.62937    3.38947
      H1    11.69921  -10.53084    4.30139
       H    14.22130   -8.15479    7.78636
       O    14.15631   -9.04965    7.41561
      H1    14.03491   -9.73436    8.09025
       H     7.51811   -9.99854    5.51711
       O     7.13539  -10.82355    5.18573
      H1     7.72622  -11.31241    4.63053
       H     9.26925  -11.13793    2.45041
       O     9.04478  -11.47701    3.28372
      H1     9.94504  -11.64209    3.52713
       H    11.78563  -10.95421   10.46968
       O    11.73929  -10.39805   11.25716
      H1    12.63104  -10.08589   11.56189
       H    10.43386   -9.13753   10.88750
       O     9.76063   -8.47122   10.71654
      H1    10.16994   -7.75752   10.20623
       H    15.07181  -13.02693    7.36811
       O    14.77781  -13.85632    6.97455
      H1    15.04152  -14.59258    7.60055
       H    11.97393  -14.39266    8.89834
       O    11.82200  -14.12139    8.01095
      H1    12.69787  -14.03592    7.61201
       H    11.62159   -6.88115    5.78449
       O    11.94185   -7.40920    5.00344
      H1    12.72828   -7.09086    4.55526
       H    13.99712   -8.64503   12.58774
       O    14.07187   -9.19854   11.82197
      H1    14.96063   -9.07387   11.53791
       H    13.10095  -14.01020   10.56381
       O    13.78529  -13.29581   10.41125
      H1    14.00451  -12.93544   11.25489
       H    11.04348   -4.79378    6.44247
       O    10.72130   -5.59196    6.91393
      H1    11.10741   -5.51523    7.80486
       H    15.76643   -8.67111    6.24426
       O    16.13001   -8.07361    5.59812
      H1    17.07109   -8.16109    5.83093
       H     7.19599  -15.09359    8.30300
       O     7.28284  -14.18515    8.57308
      H1     7.23610  -14.17975    9.49124
       H     8.62818  -16.70756    7.43443
       O     9.53547  -16.76127    7.23862
      H1     9.76041  -15.83009    6.99064
       H    11.51100  -12.31386    8.44515
       O    11.29065  -11.40500    8.48906
      H1    11.39117  -10.94489    7.66770
       H     9.30718   -9.44962    9.30762
       O     9.00093   -9.94586    8.53757
      H1     9.63376  -10.65788    8.41513

