90
frame 0 | Written by MDAnalysis XYZWriter (release 2.4.3)
       H    -9.06562  -14.76662    8.63518
       O    -8.42305  -14.10284    8.36811
      H1    -8.82396  -14.02000    7.49796
       H    -7.79624  -12.40538   14.71847
       O    -7.26649  -11.62553   14.99078
      H1    -7.05777  -11.33984   14.08436
       H    -5.08316  -16.02881    9.67426
       O    -6.03941  -15.81003    9.52316
      H1    -5.94400  -15.14998    8.78375
       H    -6.55515  -13.19095   11.34550
       O    -6.87714  -13.84065   12.01299
      H1    -6.66656  -14.70017   11.68871
       H    -5.64803  -13.66187   13.75731
       O    -4.99830  -14.08981   14.34943
      H1    -5.00525  -13.48042   15.16841
       H    -7.90620   -8.27256   12.92091
       O    -7.99210   -7.66255   13.66165
      H1    -8.36766   -8.23041   14.30417
       H    -7.50942   -9.57969   11.25079
       O    -7.31559   -9.88623   12.16542
      H1    -6.34527   -9.74682   12.18540
       H    -5.58016  -11.77288   15.86921
       O    -4.76779  -12.18692   16.17173
      H1    -4.91729  -11.99885   17.12628
       H    -6.20934   -8.88742   17.42583
       O    -6.81548   -9.00751   16.63576
      H1    -7.30067   -9.83052   16.82306
       H   -11.61211  -13.11194   12.54329
       O   -11.32423  -13.34477   11.64429
      H1   -11.93131  -14.02341   11.41505
       H   -10.28815  -16.57688    9.41804
       O   -10.38987  -16.15010    8.52238
      H1   -11.26014  -15.79483    8.63974
       H    -8.35323  -16.00112   16.37412
       O    -8.89710  -15.30850   16.81048
      H1    -8.78107  -14.56746   16.20861
       H    -9.42914  -10.64032   15.22490
       O    -9.73221   -9.72796   15.25376
      H1    -9.64480   -9.47505   16.19348
       H   -11.90728  -14.37838   15.21859
       O   -11.70081  -14.14964   14.32120
      H1   -12.58576  -13.83933   14.00349
       H   -13.18810  -15.87230   11.45142
       O   -13.16417  -15.55899   10.54456
      H1   -14.00880  -15.00781   10.63317
       H    -9.85500  -17.90063   11.70244
       O   -10.28983  -17.33753   11.02548
      H1    -9.82595  -16.49108   11.11699
       H   -12.08939  -12.67618   17.17082
       O   -12.59271  -13.53197   17.16993
      H1   -12.63712  -13.76548   18.10645
       H    -3.65471  -15.16432   15.08366
       O    -3.04515  -15.87525   15.30781
      H1    -3.25396  -15.83514   16.29210
       H    -9.11412  -13.64915   19.56894
       O    -8.49543  -13.04028   19.17706
      H1    -8.13968  -13.56317   18.45639
       H   -14.08892  -11.24082   13.77795
       O   -13.39150  -11.43355   14.41984
      H1   -13.84310  -11.71526   15.22452
       H    -3.30467  -12.13001   14.87456
       O    -2.80059  -11.76738   14.11057
      H1    -2.35835  -12.52421   13.65268
       H   -10.28305  -16.04462   16.24679
       O   -11.08875  -16.59611   16.03278
      H1   -10.67600  -17.23898   15.43270
       H    -9.84228  -13.68401   14.26025
       O    -8.85777  -13.68743   14.38042
      H1    -8.55459  -13.77118   13.46183
       H    -9.76543  -14.13866   11.29085
       O    -9.13950  -14.90259   11.29596
      H1    -8.36160  -14.38478   10.96530
       H    -8.26209  -18.43617   16.18912
       O    -7.71126  -17.66769   16.28091
      H1    -6.91463  -18.03238   15.90148
       H    -6.52457  -19.34325    9.87014
       O    -7.19630  -18.77324   10.21164
      H1    -6.85609  -17.83044   10.29316
       H   -10.35549  -12.08298   17.93575
       O   -10.83510  -11.44210   17.49613
      H1   -11.41899  -11.20734   18.20399
       H    -6.14778  -18.56404   11.57925
       O    -5.52196  -18.21200   12.20990
      H1    -6.00566  -18.37448   12.99088
       H    -7.38991  -16.22089   18.27000
       O    -6.47953  -16.11550   18.50641
      H1    -6.46836  -16.65703   19.35333
       H    -5.18676  -11.56472   10.53711
       O    -6.12128  -11.78283   10.34214
      H1    -6.59318  -11.21723   10.98503

