90
frame 9 | Written by MDAnalysis XYZWriter (release 2.4.3)
       H    17.24324   15.95280  -16.40700
       O    17.16691   15.44739  -15.51609
      H1    16.70655   14.62669  -15.65058
       H    18.22338   16.37395   -7.22707
       O    18.95855   16.87370   -6.76952
      H1    18.98277   16.66467   -5.81671
       H    14.15503   11.83202  -10.70572
       O    13.98899   12.10849  -11.61553
      H1    13.56430   12.97502  -11.55353
       H    15.65658   12.04977  -12.15082
       O    16.56665   11.85105  -12.40484
      H1    17.09042   12.25173  -11.70410
       H    16.85263   16.12348   -9.12208
       O    16.98125   15.34260   -8.56167
      H1    17.81539   15.01572   -8.96599
       H    10.24177   13.00419   -6.84523
       O    11.12650   12.78755   -7.25494
      H1    11.11808   13.21421   -8.10508
       H    16.63397   16.42838  -14.31130
       O    16.41914   17.15915  -13.73931
      H1    15.60047   17.55045  -14.16194
       H    13.22892   16.77183  -11.70838
       O    13.60478   16.72528  -10.80039
      H1    14.10170   15.94917  -10.71678
       H    18.62785   14.68609  -14.53152
       O    19.25413   13.97696  -14.32279
      H1    18.69757   13.19029  -14.19897
       H    11.32349   17.78338   -8.33964
       O    11.71218   18.26036   -9.10030
      H1    12.25684   17.62794   -9.53916
       H     9.77624   16.34391  -10.06864
       O     9.22682   17.02765  -10.51890
      H1     9.79694   17.78088  -10.68553
       H    18.50812   18.93610  -11.70301
       O    17.70723   18.82477  -12.18002
      H1    17.75009   18.09604  -12.73117
       H    16.49353   12.01549  -15.61577
       O    16.22848   12.82241  -15.13073
      H1    16.27249   12.46675  -14.24402
       H    18.88766   19.94442   -5.95150
       O    18.18164   19.27545   -6.26185
      H1    18.60278   18.45574   -6.60125
       H    14.34851   12.07306   -6.83155
       O    13.70428   11.38278   -7.09847
      H1    12.79819   11.73424   -7.01620
       H    11.60249   14.78331   -9.95317
       O    10.82033   14.88832   -9.40041
      H1    11.20479   15.37727   -8.63832
       H    12.99572   15.05899  -16.01346
       O    12.44916   15.86524  -15.95247
      H1    12.29776   16.18942  -16.88789
       H    12.20606   16.51514  -14.03579
       O    12.12391   16.47288  -13.10628
      H1    11.13712   16.38286  -13.05613
       H    18.69559   11.70499  -10.17597
       O    18.73366   12.42419  -10.84568
      H1    19.62794   12.48194  -11.22645
       H    17.18103   18.74198  -14.42366
       O    17.54086   19.31828  -15.09406
      H1    18.39288   19.66313  -14.76657
       H    15.50228   17.51135  -10.38743
       O    16.46405   17.44889  -10.17400
      H1    16.89248   17.92631  -10.89756
       H    10.57932   19.41196  -14.68859
       O    11.24200   19.42252  -13.98013
      H1    12.06499   19.22645  -14.41152
       H    15.59231   14.26934   -6.05689
       O    15.32357   13.97909   -6.92388
      H1    16.00329   14.43391   -7.47492
       H    13.55295   18.65582   -5.89382
       O    13.15555   17.86975   -5.40585
      H1    12.86424   17.23226   -6.07734
       H    10.37644   18.19453   -6.25430
       O    10.14418   17.47338   -6.89478
      H1     9.14877   17.51193   -6.99662
       H    11.59675   13.76984  -11.70823
       O    12.39519   14.22435  -11.91076
      H1    12.21371   15.00284  -12.43077
       H    14.30908   18.67488  -15.55938
       O    14.30891   17.76849  -15.12448
      H1    13.70148   17.24847  -15.65349
       H    17.62785   19.80543   -7.74632
       O    17.12435   20.02580   -8.57279
      H1    16.74468   19.22306   -8.97597
       H    14.89410   17.27934   -4.66854
       O    15.67683   17.09501   -4.17376
      H1    16.09612   16.35635   -4.60981
       H    13.61014   14.97681   -6.94536
       O    12.70747   15.32258   -6.98963
      H1    12.15776   14.57125   -6.77351

