90
frame 0 | Written by MDAnalysis XYZWriter (release 2.4.3)
       H   -14.57173   -4.06580   -2.83909
       O   -15.21549   -3.36769   -2.54173
      H1   -15.51393   -3.72821   -1.70672
       H   -12.43099   -8.68346   -2.75631
       O   -12.45553   -9.52972   -3.19713
      H1   -11.52603   -9.81482   -3.10544
       H   -10.09984   -3.94593   -4.63857
       O   -10.75867   -3.78271   -3.91121
      H1   -10.52497   -4.50323   -3.29590
       H   -10.02838   -8.08833   -9.65902
       O   -10.51556   -7.58836   -9.02924
      H1   -11.13341   -7.20074   -9.59457
       H   -12.20045   -4.11743   -8.72764
       O   -12.06172   -3.21411   -9.07545
      H1   -12.30805   -2.63532   -8.31374
       H   -13.92158   -4.80031   -7.64239
       O   -14.27409   -4.50443   -6.82065
      H1   -14.73537   -3.70672   -7.18246
       H   -13.49489   -4.55323    0.09480
       O   -12.70102   -5.10970   -0.12558
      H1   -12.40398   -5.38878    0.71054
       H   -10.06114   -6.62788   -7.38228
       O    -9.64366   -6.15619   -6.64514
      H1    -9.28094   -6.78007   -5.97937
       H   -16.32152   -6.91766   -8.50456
       O   -16.62180   -7.37900   -9.31427
      H1   -16.24326   -8.23951   -9.04867
       H    -9.83626   -9.09971   -7.95752
       O   -10.00286   -9.92075   -7.51694
      H1    -9.43425  -10.54184   -7.90472
       H   -16.17919   -5.30789   -6.76249
       O   -16.61978   -6.09681   -7.00711
      H1   -17.49242   -6.00993   -6.50436
       H   -12.45467   -6.85523   -5.23254
       O   -12.03237   -7.71356   -5.31383
      H1   -12.43997   -8.30801   -4.69750
       H   -15.44037  -10.32834   -9.62780
       O   -15.68871   -9.74338   -8.90177
      H1   -14.87234   -9.32368   -8.67760
       H   -12.77593  -10.54816   -7.42916
       O   -12.44502  -10.55087   -8.33720
      H1   -11.52548  -10.43745   -8.19305
       H    -8.84610   -9.79403   -2.06901
       O    -9.66605   -9.80067   -2.55102
      H1    -9.39259   -9.78906   -3.50108
       H   -10.47019   -8.22962   -5.14487
       O    -9.55908   -8.58698   -5.18984
      H1    -9.60820   -9.26445   -5.92542
       H    -8.05291   -4.86648   -9.40771
       O    -7.73305   -5.13064   -8.49455
      H1    -8.59476   -5.52275   -8.19627
       H   -10.84655   -6.53466   -2.65087
       O    -9.89240   -6.22436   -2.80356
      H1    -9.36848   -6.80746   -2.21069
       H   -12.56270   -2.73645   -6.16899
       O   -12.76666   -2.00076   -6.75082
      H1   -11.88419   -1.55510   -6.63991
       H   -11.87982   -8.17758   -0.46317
       O   -11.06514   -8.43836   -0.00106
      H1   -10.77585   -9.16314   -0.58478
       H   -13.70518   -4.77460   -4.91676
       O   -13.27594   -4.84610   -3.98113
      H1   -12.55894   -4.18332   -3.95922
       H   -13.34598   -8.20599   -7.06738
       O   -13.53772   -8.18938   -8.01446
      H1   -12.95517   -8.93618   -8.24380
       H   -12.98553   -6.62987   -2.84874
       O   -12.84611   -7.09062   -2.01877
      H1   -12.76564   -6.32722   -1.42818
       H   -15.65415  -11.57778   -3.32657
       O   -15.38216  -10.82610   -2.77512
      H1   -14.40578  -10.82011   -2.86292
       H   -14.50768  -10.80004   -6.30844
       O   -13.66446  -10.61033   -5.84372
      H1   -14.06020   -9.93117   -5.26135
       H    -8.46513   -3.16348   -5.35970
       O    -7.91741   -3.89239   -5.56268
      H1    -8.28627   -4.09855   -6.46906
       H    -8.65260   -6.53484   -4.12751
       O    -7.75792   -6.52691   -4.52041
      H1    -7.75584   -5.66218   -4.96079
       H   -11.81026   -2.16892   -2.98923
       O   -12.39594   -1.63718   -3.55498
      H1   -13.08176   -1.24843   -2.96970
       H   -12.89318   -5.98571  -10.03601
       O   -12.99121   -5.75382   -9.13767
      H1   -13.17910   -6.59968   -8.68187
       H   -15.15308   -9.13738   -3.57640
       O   -15.03901   -8.45120   -4.25476
      H1   -15.84001   -8.41747   -4.76150

