90
frame 0 | Written by MDAnalysis XYZWriter (release 2.4.3)
       H   -10.43002   -3.46598   16.29783
       O   -11.02444   -2.88326   16.79479
      H1   -10.81358   -2.00619   16.45750
       H    -7.20183   -4.75649   16.24422
       O    -7.09620   -3.83667   15.79216
      H1    -7.78241   -3.87824   15.11705
       H    -6.23819   -4.61145   12.78770
       O    -6.35663   -3.69584   12.46230
      H1    -6.11993   -3.76789   11.48840
       H   -10.69915   -6.34197   15.35252
       O   -10.65128   -5.53619   15.92994
      H1   -11.48072   -5.67821   16.44828
       H    -7.90620   -8.27256   12.92091
       O    -7.99210   -7.66255   13.66165
      H1    -8.36766   -8.23041   14.30417
       H    -7.01152   -5.43047   18.82029
       O    -6.04060   -5.50565   18.74375
      H1    -5.76309   -5.15932   19.64850
       H   -10.02630   -1.32357   19.19952
       O   -10.48662   -2.18809   19.24899
      H1   -10.62769   -2.43288   18.32106
       H    -4.40563   -7.68083   19.28943
       O    -5.26723   -7.97013   19.08900
      H1    -5.79114   -7.18616   19.07720
       H    -7.08786   -7.26986   16.57855
       O    -7.72328   -6.53300   16.66825
      H1    -8.13033   -6.50418   15.78241
       H    -6.20934   -8.88742   17.42583
       O    -6.81548   -9.00751   16.63576
      H1    -7.30067   -9.83052   16.82306
       H    -3.07161   -1.80053   17.54586
       O    -3.61463   -2.52963   17.87315
      H1    -3.54435   -3.10984   17.12341
       H    -8.78586   -7.76043   17.24656
       O    -9.43253   -8.34908   17.65631
      H1    -8.79933   -8.99784   18.09702
       H    -9.64192   -2.56718   14.20699
       O    -9.30270   -3.46361   14.13616
      H1   -10.06018   -4.03802   14.29684
       H    -6.24722   -2.60617   16.57817
       O    -6.01226   -1.84053   17.05220
      H1    -5.20372   -2.20186   17.50093
       H   -14.10002   -5.84302   17.51431
       O   -13.13339   -5.84389   17.45181
      H1   -12.89739   -6.65126   17.95555
       H    -6.16981   -5.36213   14.74057
       O    -5.99047   -5.77934   13.85934
      H1    -6.49158   -6.57080   13.97790
       H   -14.25409   -8.17300   15.26650
       O   -13.76067   -8.81749   15.72267
      H1   -13.66457   -9.57369   15.09005
       H   -13.03794   -8.75064   17.54286
       O   -12.57022   -8.39304   18.33332
      H1   -11.66926   -8.61225   17.95885
       H    -5.30478   -2.75511   13.90344
       O    -4.87116   -1.88652   14.12949
      H1    -4.96280   -1.90757   15.09909
       H    -9.42914  -10.64032   15.22490
       O    -9.73221   -9.72796   15.25376
      H1    -9.64480   -9.47505   16.19348
       H    -8.51986   -0.42458   15.68847
       O    -9.50492   -0.41152   15.78004
      H1    -9.78485    0.36332   15.26232
       H   -10.91847   -8.44566   14.57129
       O   -11.48773   -7.72172   14.40275
      H1   -12.15347   -7.89398   15.06705
       H    -8.91956    0.12201   17.45437
       O    -8.76530    0.04909   18.41926
      H1    -8.14427   -0.69196   18.53498
       H   -13.32781   -3.23510   14.15823
       O   -13.15856   -4.11021   14.49273
      H1   -13.35031   -3.97146   15.46163
       H   -15.43723   -6.10418   18.75448
       O   -15.77075   -6.15966   17.83060
      H1   -16.27814   -6.98539   17.71955
       H   -15.41178   -1.17392   17.83066
       O   -14.49485   -1.53630   17.87587
      H1   -14.13463   -1.03991   17.05474
       H    -6.20554   -3.41272   20.14678
       O    -6.68780   -2.60977   19.79491
      H1    -6.33864   -2.49716   18.89190
       H    -9.01984   -3.71993   12.09390
       O    -9.33308   -3.50853   11.20555
      H1    -8.55904   -3.57213   10.55170
       H    -9.06574   -3.89784   19.20235
       O    -8.85629   -4.75939   18.92314
      H1    -9.51478   -4.93881   18.24938
       H    -3.32011   -5.88146   17.20761
       O    -3.98733   -5.32871   16.75345
      H1    -4.73590   -5.35336   17.37218

