90
frame 1 | Written by MDAnalysis XYZWriter (release 2.4.3)
       H   -16.96028   11.45851   -1.17929
       O   -16.15058   11.00078   -1.34912
      H1   -15.88675   11.13186   -2.27570
       H   -12.97995    7.57498   -5.56297
       O   -12.21220    7.88324   -5.13989
      H1   -12.38740    8.02146   -4.20261
       H   -16.82003    9.36632   -5.84640
       O   -17.01940    9.84856   -5.03497
      H1   -17.18161    9.19076   -4.36844
       H   -11.23438   12.30790  -10.63974
       O   -12.06322   12.08306  -10.11660
      H1   -12.65057   12.67916  -10.58174
       H   -13.76018    9.30493   -1.57160
       O   -13.48151    9.26201   -2.50099
      H1   -13.92244    9.97526   -3.01481
       H   -10.33567   15.81366   -9.68087
       O   -10.98847   15.44371  -10.31161
      H1   -10.97871   16.00755  -11.06756
       H    -7.29458   11.10823   -4.89474
       O    -7.91003   11.78480   -5.22313
      H1    -8.34329   11.54862   -6.09275
       H   -14.26043   12.08867   -5.77690
       O   -14.25850   12.68811   -6.52774
      H1   -13.34000   12.77931   -6.80400
       H   -13.11613   10.25244   -7.42984
       O   -13.31710    9.78574   -8.28654
      H1   -13.11026   10.42867   -9.00117
       H   -13.57519   17.41266   -5.48566
       O   -13.41240   17.70415   -4.55941
      H1   -13.02632   16.94968   -4.12541
       H   -15.18662   14.64359   -3.28211
       O   -14.51227   14.00105   -3.47480
      H1   -14.17639   13.79855   -2.60484
       H   -10.89673   16.51309   -6.46030
       O   -11.59002   15.92608   -6.80585
      H1   -12.27440   16.47707   -7.16365
       H   -15.24699   12.24767   -3.71723
       O   -15.05901   11.28861   -3.80082
      H1   -15.83102   10.91402   -4.20056
       H   -18.39034   14.19244  -10.41714
       O   -17.45688   14.08669  -10.48838
      H1   -17.24361   13.89531   -9.53706
       H   -12.40317   16.07016  -10.23368
       O   -13.19374   16.65842  -10.11748
      H1   -13.88973   16.40072  -10.74637
       H    -8.53615   15.43823   -7.93483
       O    -8.47517   15.94501   -8.77186
      H1    -8.18075   15.24717   -9.38539
       H   -11.89397   15.36003   -4.85280
       O   -12.04260   15.41628   -3.88793
      H1   -12.82106   14.87766   -3.85556
       H   -16.11492   15.89835   -4.73672
       O   -16.45581   16.14357   -3.88532
      H1   -17.34443   16.40941   -4.01763
       H   -15.04078   15.90148   -7.12325
       O   -15.45939   15.12678   -6.65630
      H1   -14.82397   14.41419   -6.44621
       H   -10.35787   10.63343   -7.45045
       O    -9.70585   11.38722   -7.49858
      H1   -10.31786   12.13159   -7.59876
       H   -19.85044   13.73420   -7.04623
       O   -19.21583   14.07805   -6.29901
      H1   -18.34598   14.00623   -6.67921
       H   -11.69249   12.90803   -8.62698
       O   -11.68960   13.19478   -7.70358
      H1   -11.49765   14.12292   -7.61548
       H   -11.53521    9.12498   -8.03884
       O   -10.61865    8.95913   -7.85873
      H1   -10.66047    8.54949   -6.99957
       H   -13.93622   18.28052   -7.51892
       O   -13.98303   17.32227   -7.37942
      H1   -13.81417   17.14356   -8.32085
       H   -15.33312   10.85451   -9.58068
       O   -15.86930   11.31261   -8.93536
      H1   -15.24320   11.31198   -8.17972
       H   -11.45697   11.08406   -5.37526
       O   -12.30553   10.63180   -5.45889
      H1   -12.25833    9.68415   -5.19656
       H    -9.90955   14.79545   -3.79249
       O    -9.02117   14.70340   -3.36548
      H1    -8.69444   13.83444   -3.65086
       H   -18.27608   11.04940   -5.44410
       O   -19.08781   11.54409   -5.47120
      H1   -18.98585   12.47175   -5.56544
       H   -14.22214    7.59260   -7.57625
       O   -14.41484    7.09379   -6.74184
      H1   -15.37800    7.09775   -6.64598
       H   -16.45498   14.07690   -7.47573
       O   -17.05145   13.42457   -7.90563
      H1   -16.53759   12.66180   -8.20013

