90
frame 9 | Written by MDAnalysis XYZWriter (release 2.4.3)
       H     1.03343   14.12891   -2.22699
       O     0.58022   13.35439   -2.65029
      H1    -0.32356   13.62965   -2.74917
       H     3.10730    9.03217   -3.48575
       O     3.28684    8.81144   -4.45838
      H1     3.89674    8.05916   -4.37012
       H     2.96835   13.55846   -5.29287
       O     3.92120   13.71502   -5.19280
      H1     4.20911   14.44237   -5.81457
       H     2.74667   17.63090   -3.76593
       O     2.55139   17.56820   -2.85307
      H1     1.69617   18.01916   -2.89637
       H     7.23531   10.81986   -1.86901
       O     6.43466   10.29271   -2.03293
      H1     5.96284   10.63963   -2.80853
       H     2.81104   18.09182    0.50026
       O     1.94940   17.92546    0.85740
      H1     1.38292   17.92601    0.09680
       H     8.00557   12.67973   -5.63987
       O     8.69577   13.10663   -5.10507
      H1     8.34589   13.87778   -4.68153
       H    -1.18437   15.67702   -3.73431
       O    -1.65028   16.50744   -3.81327
      H1    -1.37223   16.91391   -4.68195
       H     4.98320   13.00714    0.58093
       O     4.77587   12.08322    0.42106
      H1     5.33041   11.87156   -0.36541
       H     7.02206   19.33750   -4.64813
       O     6.42878   18.51281   -4.49214
      H1     6.32248   18.43206   -3.53344
       H     2.09862   16.16736   -1.44095
       O     1.80254   15.27416   -1.24306
      H1     1.19783   15.34721   -0.54206
       H     5.35614   14.65135    2.64623
       O     5.00783   15.49721    2.23931
      H1     4.23763   15.67176    2.77420
       H     1.05512   15.05063   -6.40781
       O     0.95688   15.37132   -7.30849
      H1     0.97367   14.58236   -7.88145
       H     2.24849    9.84322   -6.01272
       O     1.77223   10.60829   -6.38346
      H1     1.02253   10.31862   -6.91699
       H     4.37850   16.62477   -7.54369
       O     4.65874   15.94809   -6.88364
      H1     5.65488   16.15061   -6.79804
       H     0.67242   12.36989    0.28936
       O     1.51408   11.96311    0.15235
      H1     1.73535   11.96546   -0.81021
       H     5.11225   18.97750   -1.72105
       O     4.31464   19.59719   -1.75530
      H1     3.65299   18.97613   -2.18503
       H     4.70312   11.84669   -4.65088
       O     5.17305   11.03043   -4.73966
      H1     4.41770   10.38101   -4.62744
       H     6.24157   13.96884   -7.94848
       O     6.24837   13.23980   -7.24797
      H1     5.30272   13.03947   -7.06149
       H    -0.38715   15.85197    1.67311
       O    -0.19340   15.66415    0.73114
      H1    -0.83973   16.04237    0.12748
       H     7.36600   15.06311   -2.34516
       O     7.79639   15.25259   -3.14648
      H1     7.67099   16.23078   -3.24920
       H     6.63314    9.52253   -7.20588
       O     7.07872    9.88256   -6.40241
      H1     6.26912   10.12758   -6.00722
       H    -0.69199    9.67846    0.36820
       O    -0.28054   10.02509   -0.45562
      H1     0.41625   10.65483   -0.18384
       H     3.30369   18.17749   -6.29326
       O     3.29285   18.63591   -5.44688
      H1     4.23236   18.73672   -5.20251
       H     2.51693   11.62230    3.29546
       O     3.15708   11.28529    2.67117
      H1     2.72765   11.63957    1.84505
       H     3.37438   14.56710   -2.13763
       O     3.92655   13.93641   -2.63215
      H1     3.87042   14.15835   -3.55448
       H     1.00464   13.24307   -4.21796
       O     1.32442   13.33254   -5.18009
      H1     1.39163   12.48581   -5.62664
       H     7.39247   11.28790    1.57761
       O     6.59229   10.92153    1.96484
      H1     5.84671   11.11882    1.30234
       H     3.65827   11.28401   -1.10962
       O     3.11292   11.52429   -1.89750
      H1     3.58557   12.26206   -2.27592
       H     5.65851   15.28143    0.02879
       O     6.02681   14.49931   -0.38075
      H1     6.95751   14.68534   -0.16588

