90
frame 9 | Written by MDAnalysis XYZWriter (release 2.4.3)
       H    15.16119    6.41807   -6.74303
       O    14.32973    6.81282   -7.10484
      H1    14.06081    7.38087   -6.37956
       H    11.84120    5.62907   -7.78748
       O    11.30709    5.18461   -7.09569
      H1    11.82470    5.40679   -6.28931
       H    14.51196    7.65354   -8.50260
       O    14.39165    8.11027   -9.35740
      H1    14.09126    9.04091   -9.20108
       H    12.90739   -1.96438   -9.16925
       O    12.05292   -1.48472   -8.92087
      H1    12.03799   -0.71688   -9.55618
       H    13.18811    0.92419   -6.85167
       O    13.53329    0.51284   -7.66142
      H1    12.96402   -0.20027   -7.72605
       H    14.16228    3.53859   -5.39986
       O    13.87072    3.46777   -4.51420
      H1    13.31581    4.31234   -4.42093
       H    12.06605    3.41742  -12.75546
       O    12.58030    3.82824  -12.02197
      H1    13.42477    4.09433  -12.39344
       H    10.04562    1.49620   -7.47516
       O     9.90177    0.74873   -8.05495
      H1     9.12031    1.06192   -8.60374
       H    13.41184    7.43353  -12.18941
       O    12.62298    7.84502  -12.66164
      H1    11.88424    7.58184  -12.05246
       H     8.53152    2.26259  -10.89481
       O     9.14138    2.12336  -11.59799
      H1     8.94966    2.78531  -12.26378
       H    17.71542    6.66327  -12.48343
       O    17.99260    5.90920  -11.95056
      H1    18.56544    5.48432  -12.57892
       H    12.93267    2.02563   -4.60871
       O    12.47206    1.19491   -4.92884
      H1    12.23506    0.73132   -4.11655
       H    15.89102    8.12999  -12.21910
       O    15.54264    7.43309  -12.80630
      H1    15.06352    7.83884  -13.58243
       H    12.90828    1.62652  -14.11135
       O    13.01082    1.29764  -13.19775
      H1    13.04262    2.14403  -12.66303
       H     8.26408    6.50946   -6.52409
       O     8.66957    5.91571   -7.15977
      H1     9.62576    5.77493   -6.98372
       H     9.72966    7.14111  -11.23417
       O    10.57049    7.46952  -10.86441
      H1    10.88764    6.86974  -10.13884
       H    13.40860   -2.14929   -5.73077
       O    14.00124   -2.20191   -6.57588
      H1    13.99002   -1.28497   -6.87574
       H    17.04179    3.80868  -10.16439
       O    17.65030    3.05383  -10.04121
      H1    17.36132    2.76543   -9.18475
       H    16.65370    6.00100   -8.47369
       O    17.05471    6.52954   -7.79362
      H1    17.75846    6.99790   -8.17049
       H    10.92296    2.24828   -5.43453
       O    10.43095    2.77281   -6.10790
      H1    11.04470    3.40383   -6.38443
       H    17.20346    1.28505   -5.96553
       O    17.14997    1.90822   -5.31127
      H1    16.54050    1.50624   -4.69333
       H    14.78423    3.81285   -8.00366
       O    15.09139    3.68476   -7.07526
      H1    15.63739    2.90106   -7.00648
       H    14.86197    5.02904   -9.89688
       O    15.71972    5.42940   -9.94588
      H1    15.82647    5.92182  -10.75394
       H    16.43516    0.13378   -8.37893
       O    16.20082    0.99272   -8.07895
      H1    15.21494    0.94776   -8.10142
       H    18.17681    2.17110  -11.72904
       O    18.50083    1.47431  -12.29759
      H1    19.42278    1.68924  -12.59855
       H    14.05984   -1.84941  -13.54578
       O    14.17146   -1.68449  -12.61033
      H1    14.31004   -0.77944  -12.55402
       H    11.56742    0.94603  -11.55134
       O    11.61687    0.83709  -10.60669
      H1    10.90989    1.45680  -10.35293
       H    13.32677    3.40345  -10.44017
       O    13.66884    3.44844   -9.51528
      H1    13.40120    2.57499   -9.18663
       H    13.12876    6.82207   -9.07431
       O    12.40882    6.20621   -9.18562
      H1    12.72250    5.68246   -9.93814
       H    15.58914    5.47279  -13.05168
       O    15.11643    4.62257  -12.97125
      H1    15.73511    3.93697  -13.29272

