90
frame 9 | Written by MDAnalysis XYZWriter (release 2.4.3)
       H     3.62764   16.33768  -10.59740
       O     2.83262   15.72878  -10.41191
      H1     2.14780   16.43201  -10.27019
       H     2.11133   15.73261  -15.07837
       O     2.85908   16.18471  -15.44752
      H1     2.88427   15.96855  -16.33729
       H     5.61971   19.14165  -14.73101
       O     4.99198   18.39253  -14.42973
      H1     4.27604   18.34760  -15.04008
       H    -3.45316   14.04584  -10.55764
       O    -3.42946   13.06415  -10.43220
      H1    -3.93176   12.69302  -11.16613
       H    -4.55489   15.32511  -14.13718
       O    -4.16977   14.73306  -14.81723
      H1    -4.00557   15.34737  -15.55777
       H    -3.34916   17.13771  -12.70616
       O    -3.48444   17.94173  -13.18050
      H1    -2.93192   17.86499  -13.98055
       H     5.78049   16.62262  -10.38061
       O     5.21352   17.27838  -10.84440
      H1     5.77423   17.41196  -11.66405
       H     0.82148   16.82035  -13.71830
       O     0.45558   16.00385  -13.39316
      H1    -0.00237   16.18815  -12.54113
       H     0.89170   12.48764  -12.02973
       O     0.10268   12.68723  -11.56564
      H1    -0.47490   11.93618  -11.58498
       H     1.33592   14.21727  -13.22856
       O     1.94778   13.50855  -13.48542
      H1     1.57627   13.11671  -14.31547
       H     4.85631   15.81751  -14.88353
       O     5.41700   15.08867  -14.86521
      H1     5.11284   14.54663  -15.57285
       H    -1.35721   17.91487  -17.41646
       O    -0.47001   17.58456  -17.24033
      H1    -0.62922   16.63196  -17.18526
       H    -0.74839   19.01868  -10.71632
       O    -0.68085   18.79358   -9.78900
      H1    -1.59322   18.68273   -9.51624
       H    -0.94584   18.93648  -14.43948
       O    -1.60204   18.70286  -15.12365
      H1    -1.05618   18.34803  -15.83155
       H    -2.14486   13.19094  -13.98861
       O    -1.40607   13.79652  -13.71093
      H1    -1.09748   13.34884  -12.92277
       H     4.87089   14.11712  -13.11781
       O     4.75181   13.37929  -12.48722
      H1     3.80428   13.18194  -12.45243
       H     1.05512   15.05063   -6.40781
       O     0.95688   15.37132   -7.30849
      H1     0.97367   14.58236   -7.88145
       H     3.14609   18.67774  -11.09726
       O     2.22429   18.54833  -11.22453
      H1     1.82229   19.42324  -11.21676
       H     2.56745   17.63004  -14.18155
       O     1.93921   18.24951  -13.89997
      H1     2.08603   18.39818  -12.91254
       H    -4.96297   15.66665   -8.87318
       O    -4.11816   15.63848   -9.47954
      H1    -3.89811   16.58780   -9.47088
       H    -1.19497   14.50609  -16.05014
       O    -1.13283   14.80794  -16.95781
      H1    -2.00883   14.84905  -17.33860
       H    -2.10027   18.86580  -12.62227
       O    -1.43624   19.50642  -12.35330
      H1    -1.98301   20.22016  -11.99611
       H     0.78229   13.25833   -9.90768
       O     1.46100   13.36075   -9.16996
      H1     2.06548   14.00412   -9.55314
       H     2.91211   18.49803   -8.71330
       O     3.78645   18.16512   -8.40244
      H1     4.34055   19.00646   -8.23871
       H     1.72351   12.13556  -16.28414
       O     1.40267   11.91265  -15.36258
      H1     0.47113   11.84402  -15.56129
       H    -2.18001   15.17881  -12.78465
       O    -2.65643   15.72872  -12.12405
      H1    -2.02369   15.74964  -11.33463
       H    -2.42161   13.32215   -8.85546
       O    -1.69657   13.09383   -8.22020
      H1    -1.89318   13.71728   -7.48488
       H    -0.14829   15.22825  -10.08616
       O    -0.57793   15.97232  -10.52012
      H1    -0.42054   16.74709   -9.96192
       H    -3.66971   18.97497   -9.71304
       O    -3.21373   18.32764   -9.14979
      H1    -3.59694   18.48705   -8.25089
       H     1.05965   17.24586   -7.47789
       O     0.87783   18.14853   -7.68186
      H1     0.33790   18.18906   -8.49191

