90
frame 9 | Written by MDAnalysis XYZWriter (release 2.4.3)
       H     6.86616    9.74833   10.69552
       O     7.08604    8.78844   10.51427
      H1     6.91875    8.70120    9.55588
       H     7.26149   16.91607    7.66306
       O     7.37325   15.94319    7.73869
      H1     6.78244   15.62291    7.04589
       H     8.12616    8.82060    3.96581
       O     8.79948    8.27945    3.51072
      H1     8.28479    8.13375    2.72165
       H    10.74096    9.46301   11.30462
       O    11.06388   10.34781   11.57889
      H1    11.33314   10.79551   10.78918
       H    12.45563   11.63460    8.97998
       O    11.53048   11.76077    9.00901
      H1    11.33632   12.71807    9.11872
       H     8.17639    7.27899    4.73320
       O     8.12606    6.50857    5.34676
      H1     9.03670    6.28473    5.64967
       H    12.62435    7.28262    6.11833
       O    13.05912    7.85191    5.45864
      H1    12.32584    8.44403    5.26466
       H     7.04813    7.48610    6.49139
       O     6.59496    7.96467    7.21779
      H1     6.36249    8.82953    6.87082
       H    10.73615   10.30913    5.68132
       O    11.21890    9.94556    4.93877
      H1    10.51395    9.67049    4.35085
       H     9.64002   14.20121    5.54271
       O     9.81087   13.51927    4.90629
      H1    10.68838   13.22243    4.93444
       H    14.88477   14.12291    6.30755
       O    14.45625   13.30429    6.23708
      H1    14.46037   12.87474    7.11546
       H     8.48044   16.17251    6.15294
       O     9.26986   16.12652    5.64872
      H1     9.11230   16.69412    4.84527
       H     9.81725    7.23408   10.21212
       O     9.74388    8.19966   10.11286
      H1     8.76680    8.33703   10.10392
       H    15.14026   12.28494    8.77826
       O    14.26844   11.96496    8.54536
      H1    14.46317   11.10882    8.04701
       H     6.30428   10.13196    3.67514
       O     6.62241    9.66893    4.49209
      H1     5.76133    9.22500    4.70251
       H    14.03561    9.27824    6.33762
       O    14.64031    9.82961    6.82029
      H1    15.54202    9.47582    6.78699
       H     5.44998   12.68442    5.11906
       O     5.43929   12.88863    6.06555
      H1     5.99091   12.40788    6.62309
       H    10.51993    7.85549    8.15431
       O    11.30678    7.46122    7.75196
      H1    11.12348    6.61559    7.36493
       H    10.43886   11.29741    7.58040
       O     9.63124   11.19417    7.04666
      H1     9.52556   11.97052    6.44442
       H    10.88192   17.89932    7.81431
       O    11.24799   17.32830    7.08171
      H1    10.47757   16.97807    6.62522
       H     7.69556   10.65552    7.70893
       O     6.85352   11.05070    7.74385
      H1     6.90320   11.73722    8.41118
       H     6.62923   15.39977    9.53109
       O     5.97947   15.22870   10.23304
      H1     5.21152   15.52888    9.84542
       H     5.43725   14.54743    5.87511
       O     5.37226   15.51404    5.93389
      H1     4.38649   15.74117    6.08063
       H    10.58167   14.87642   10.64269
       O    11.06512   14.10658   10.95906
      H1    10.44312   13.60069   11.46806
       H    11.41225   11.75174    2.15418
       O    10.67523   12.01275    1.55547
      H1    10.50382   11.32634    0.91648
       H     7.39247   11.28790    1.57761
       O     6.59229   10.92153    1.96484
      H1     5.84671   11.11882    1.30234
       H    10.63517   15.68275    2.22612
       O     9.65886   15.75770    2.15101
      H1     9.21031   14.92594    2.55467
       H    13.43049   12.92111    4.21073
       O    12.80884   12.40323    3.72721
      H1    12.64631   11.65885    4.35898
       H     8.70926   13.06390    3.57415
       O     8.44774   13.20571    2.61867
      H1     9.25473   12.83457    2.21506
       H     6.20897   12.65480    2.86441
       O     5.45603   13.05620    3.23679
      H1     4.61230   12.66078    2.83289

