90
frame 0 | Written by MDAnalysis XYZWriter (release 2.4.3)
       H   -17.44481    5.51037   -5.07341
       O   -17.25433    6.05378   -4.27762
      H1   -16.29670    5.91940   -4.09467
       H   -19.42893   12.70196    2.43545
       O   -19.82292   12.09011    3.12815
      H1   -19.16951   11.39885    3.10935
       H   -18.17202   12.08506   -7.87035
       O   -17.34605   11.91773   -8.43109
      H1   -17.20897   12.77586   -8.83005
       H   -17.03653   15.09776   -2.98336
       O   -17.71183   14.67100   -3.57789
      H1   -17.61900   13.75797   -3.31837
       H   -12.46922    8.70330   -3.25641
       O   -12.03956    7.99491   -2.74377
      H1   -11.57873    7.58322   -3.44869
       H   -14.17755    6.94405   -4.22125
       O   -14.02003    5.94736   -4.27615
      H1   -13.85534    5.68487   -5.22959
       H   -15.51241   10.83433   -6.92078
       O   -14.98886   11.61099   -6.84825
      H1   -15.45761   12.22604   -7.48214
       H   -17.03970   16.60369   -6.19839
       O   -16.54678   15.82373   -6.02847
      H1   -17.17380   15.37497   -5.36027
       H   -17.48950    9.99881    3.57693
       O   -18.27763    9.77620    3.04949
      H1   -17.89620    9.34425    2.28587
       H   -16.76022    9.02182   -1.61344
       O   -15.81289    8.89137   -1.96703
      H1   -15.91655    9.03886   -2.90984
       H   -16.20991    8.12905   -7.40418
       O   -16.30747    8.72835   -6.65162
      H1   -17.15326    8.31238   -6.34205
       H   -19.21442   12.33611    0.00917
       O   -18.71948   12.92007    0.59107
      H1   -17.77406   12.67820    0.28886
       H   -14.99964   16.28493   -4.15874
       O   -14.17243   15.95430   -3.73158
      H1   -13.51061   16.54662   -4.16509
       H   -14.78237    8.75378   -0.70303
       O   -13.92546    8.81952   -0.17759
      H1   -14.25495    8.98310    0.72123
       H   -15.46711   15.01592   -8.86035
       O   -15.72471   14.22254   -8.40283
      H1   -16.06827   14.57045   -7.56137
       H   -15.49731   12.12528   -0.42229
       O   -16.00468   12.77939    0.04911
      H1   -16.09031   13.46514   -0.64645
       H   -15.43777   11.18873    1.42301
       O   -15.51176   10.25242    1.63068
      H1   -15.77246   10.30628    2.57613
       H   -15.92438   16.30490   -1.64945
       O   -15.92296   15.29303   -1.70856
      H1   -15.10021   15.15063   -2.26439
       H   -17.74092    8.18223   -0.22359
       O   -17.74928    9.17269   -0.23360
      H1   -17.08928    9.35492    0.42164
       H   -17.01910    5.84543   -0.48345
       O   -17.48143    6.27564    0.26440
      H1   -18.29097    5.73945    0.21213
       H   -14.94715   11.55278   -5.09899
       O   -14.80872   11.42470   -4.14291
      H1   -14.47894   10.50884   -4.05362
       H   -12.30443   13.76165   -5.39124
       O   -12.03951   13.80693   -6.31663
      H1   -11.02726   13.63814   -6.31573
       H   -19.03323    7.30697   -4.84742
       O   -19.53906    7.91510   -5.32156
      H1   -19.42212    8.60675   -4.66570
       H   -18.24283    9.99523  -11.00697
       O   -17.41881   10.38473  -10.68980
      H1   -17.65434   10.98735   -9.94608
       H   -13.52844    8.80602   -5.33178
       O   -14.31383    8.83513   -4.79763
      H1   -15.03446    8.76059   -5.51341
       H   -12.32358   12.45027   -7.19936
       O   -12.52474   11.52480   -7.40030
      H1   -13.50611   11.53505   -7.10673
       H   -14.48634   15.22178   -0.29677
       O   -13.85818   14.98951    0.37605
      H1   -12.99713   15.12422   -0.04865
       H   -17.84113   11.31354   -3.60430
       O   -17.25094   11.85841   -3.02661
      H1   -16.37244   11.73213   -3.28752
       H   -13.55465   10.43677   -0.74234
       O   -13.80209   11.37967   -0.78361
      H1   -13.50569   11.69128   -1.63619
       H   -13.43717   14.22743   -4.01785
       O   -12.78123   13.51628   -3.81848
      H1   -13.44667   12.87845   -3.71858

