90
frame 9 | Written by MDAnalysis XYZWriter (release 2.4.3)
       H    -4.42875    5.08003   12.90129
       O    -4.35225    4.24465   12.31208
      H1    -4.29947    3.49098   12.90730
       H   -10.38409    6.78617   12.81087
       O   -10.67263    7.05388   13.68655
      H1   -11.35445    7.68288   13.62514
       H    -9.23078   11.06802   14.21853
       O    -9.52831   11.46350   14.99385
      H1    -8.80337   12.07055   15.27431
       H    -4.02966    2.56974   17.85116
       O    -3.50252    3.22464   18.29282
      H1    -3.22741    3.83742   17.56831
       H    -8.72435    8.14993   10.23017
       O    -9.16947    8.84830   10.69178
      H1    -8.69021    8.99721   11.53603
       H    -7.04093    1.56152   14.51669
       O    -6.73254    2.43947   14.96821
      H1    -7.39447    3.03046   15.13052
       H    -2.21068    7.30500   10.56790
       O    -2.04016    6.38586   10.84080
      H1    -2.65719    6.12307   11.53706
       H    -6.79530   10.39230   17.46376
       O    -7.07314    9.59310   17.97097
      H1    -6.84600    9.90164   18.88525
       H    -9.26263    4.84042   12.67016
       O    -9.88266    5.12762   11.95758
      H1   -10.33842    4.36579   11.64457
       H    -5.54510   12.52915   13.23109
       O    -6.25720   12.13590   12.70593
      H1    -5.99330   12.34672   11.78645
       H    -1.64907   10.29786   12.25105
       O    -2.45420    9.93175   12.61871
      H1    -2.58959   10.29534   13.51191
       H    -9.61902    8.22586   16.56309
       O    -9.32784    7.58646   15.93508
      H1    -9.91816    7.49065   15.17675
       H    -7.64730    7.22099   15.10271
       O    -6.73199    7.23323   14.77727
      H1    -6.14280    7.40721   15.52454
       H    -9.72494   10.63109   16.72643
       O    -9.82689   10.00040   17.45465
      H1    -8.94330    9.68040   17.76361
       H    -5.65442    6.30380   11.84132
       O    -6.54498    6.34229   12.23132
      H1    -6.42405    6.58382   13.20356
       H    -1.73069    7.37605   17.51370
       O    -1.88744    7.34117   16.56044
      H1    -1.04326    7.58188   16.12829
       H    -1.73232    4.40487   16.07668
       O    -2.57697    4.79453   16.25096
      H1    -2.33540    5.72685   16.24716
       H    -7.66025    9.53336   13.48064
       O    -8.14163   10.16577   12.97573
      H1    -7.45250   10.80699   12.87823
       H    -3.48963   11.30245   15.12893
       O    -2.95609   10.47323   15.19130
      H1    -2.06599   10.73489   15.50311
       H    -9.92226    4.38305   14.85720
       O    -9.04356    4.48515   15.16595
      H1    -9.07461    5.23896   15.73949
       H    -9.00312    5.99149   10.67510
       O    -8.47819    6.32316    9.89424
      H1    -7.53869    6.14023   10.22682
       H    -2.46255   10.70223   18.97118
       O    -3.33957   10.52275   19.35849
      H1    -3.47218    9.60442   18.99518
       H    -3.96704   13.43250   15.16959
       O    -4.46076   12.70513   14.84413
      H1    -5.08134   12.57859   15.58353
       H   -10.59684    4.07290   17.37248
       O   -10.89411    4.96174   17.69797
      H1   -10.44413    5.15305   18.49218
       H    -4.62021    7.45186   13.84105
       O    -4.08560    7.20690   13.10836
      H1    -3.57432    8.01261   12.93660
       H    -3.44308    1.66926   14.43659
       O    -4.13563    1.89399   13.83494
      H1    -4.91985    2.04097   14.33882
       H    -5.57846   12.46011   17.44615
       O    -6.26256   12.04625   16.87313
      H1    -7.00931   12.66461   16.87679
       H    -7.59057    7.62916   18.65301
       O    -8.19198    6.92554   18.40099
      H1    -8.43702    7.11383   17.48064
       H    -4.44005    9.28601   15.97813
       O    -4.40835    8.36833   16.11639
      H1    -3.47065    8.10255   16.28717
       H    -4.78976    8.05126   18.33396
       O    -4.05091    7.85273   18.93546
      H1    -4.23618    8.24089   19.78041

