90
frame 9 | Written by MDAnalysis XYZWriter (release 2.4.3)
       H     6.48301   -0.60047    2.45473
       O     6.77477   -1.43849    2.77485
      H1     6.75179   -2.01285    1.99800
       H     6.49430    3.64593    3.98130
       O     6.28213    2.89907    4.54392
      H1     7.04383    2.71155    5.11698
       H     3.94395   -7.71477    5.38519
       O     3.47041   -7.04820    5.90538
      H1     3.95843   -6.20889    5.61199
       H     7.81612   -2.50364    0.30884
       O     7.09097   -3.16470    0.52217
      H1     6.25292   -2.84728    0.14671
       H     5.18919   -7.22585    6.94370
       O     5.96092   -7.36708    7.45159
      H1     6.58704   -7.83893    6.91912
       H     3.97176   -3.87900    8.83615
       O     4.58537   -3.49241    9.49661
      H1     5.27518   -4.16746    9.68035
       H     2.69168   -2.97736    7.39292
       O     2.82129   -3.93690    7.52981
      H1     1.89703   -4.21056    7.43825
       H     8.98911   -4.99269    4.76687
       O     9.72575   -4.30999    4.75684
      H1    10.21521   -4.51916    3.93045
       H    11.12258   -3.39143    6.02256
       O    11.41026   -3.50056    6.98485
      H1    12.16498   -2.79847    7.07268
       H     4.59644   -0.86775    5.62564
       O     3.83568   -0.24605    5.58784
      H1     4.02928    0.51464    6.23528
       H     0.64766   -2.24553    2.78897
       O     1.27150   -2.21490    3.54835
      H1     0.84979   -1.67004    4.22279
       H     5.51249   -3.78357    5.08424
       O     5.39884   -4.68850    4.86733
      H1     4.57122   -4.61025    4.32364
       H     9.30627   -2.43849    3.73895
       O     9.38520   -1.50459    3.47541
      H1     8.48154   -1.25812    3.26177
       H     3.90072   -4.39860    2.32603
       O     3.43812   -4.96805    2.94469
      H1     2.52344   -4.61136    2.82731
       H     7.15073   -6.07437    7.32709
       O     7.87058   -5.53788    7.61728
      H1     8.55873   -5.60155    6.93277
       H     6.41233   -6.33261   10.20528
       O     6.68459   -5.40081   10.13320
      H1     7.23932   -5.34474    9.36479
       H     3.37910   -0.05973    3.61479
       O     2.76125    0.03403    2.86152
      H1     2.29924   -0.79489    2.91666
       H     8.57045    1.79614    7.10461
       O     8.41599    1.86150    6.17631
      H1     9.07935    1.25075    5.79757
       H     7.52458    1.26996    2.19624
       O     6.53328    1.26260    2.25855
      H1     6.32131    1.62830    3.17372
       H     6.96645   -5.72527    4.48124
       O     7.82147   -6.20748    4.62953
      H1     8.23269   -6.35500    3.76349
       H     8.53799   -1.63843    9.78600
       O     7.92068   -1.53759   10.52185
      H1     7.98197   -2.45161   10.90606
       H     6.31874   -0.79860   10.34531
       O     5.47819   -0.49272    9.99873
      H1     5.18317    0.15094   10.66842
       H     9.97666   -2.48603    7.72176
       O     9.42077   -1.89468    8.28481
      H1     8.51908   -2.27075    8.22459
       H     2.56684   -0.86908    6.75484
       O     1.73918   -1.00635    7.26308
      H1     1.80455   -0.42994    8.03796
       H     6.44816   -2.28041    6.24113
       O     5.83646   -2.22525    5.51092
      H1     6.39348   -2.00764    4.72933
       H     4.55222   -1.70884    0.79027
       O     4.31969   -2.58762    0.60725
      H1     3.39408   -2.59273    0.22671
       H     6.04976   -2.85871    8.48512
       O     6.93449   -2.94487    8.04154
      H1     7.07922   -3.89367    7.87000
       H     4.99325    0.89946    8.33936
       O     4.45179    1.45263    7.76076
      H1     4.85479    2.25517    7.49033
       H     5.23134    0.69104    1.16266
       O     4.47748    0.32145    0.68448
      H1     3.72918    0.40709    1.31291
       H    10.00865   -0.39105    6.52290
       O    10.27614    0.02921    5.72980
      H1    10.00049   -0.50778    5.00691

