90
frame 1 | Written by MDAnalysis XYZWriter (release 2.4.3)
       H    -5.75142   13.11015   15.81154
       O    -5.42778   13.80362   16.48960
      H1    -6.16882   14.37513   16.45599
       H    -6.86047   11.54020   14.47769
       O    -6.71152   12.50018   14.47858
      H1    -7.52859   12.93906   14.70871
       H    -9.59259   13.99568   15.36860
       O    -8.76279   14.34238   15.09128
      H1    -8.70375   15.24758   15.39978
       H    -9.75866   16.83536   17.34573
       O    -9.29076   16.55601   16.54033
      H1    -8.87657   17.24040   15.99614
       H    -7.58005   16.25908    5.42282
       O    -8.44545   16.45124    5.10978
      H1    -8.56603   15.80979    4.41756
       H    -7.31381   17.94128   10.83809
       O    -7.76097   17.05150   10.71367
      H1    -7.35197   16.34289   11.28781
       H   -10.95141   16.97433   10.07823
       O   -10.26280   17.45599    9.61223
      H1    -9.39403   17.20953    9.92762
       H    -7.83753   12.27804    6.68721
       O    -7.77871   13.13192    7.07901
      H1    -8.60748   13.57411    6.88271
       H    -5.92617   10.12674   10.66301
       O    -5.97998   10.95096   11.14334
      H1    -5.87698   10.70716   12.07354
       H    -2.55135   14.03731    8.21264
       O    -3.23067   14.70757    8.10615
      H1    -3.09279   14.98754    7.11460
       H    -8.05597   14.73288   12.46747
       O    -7.24788   14.97180   12.03246
      H1    -7.00076   14.30282   11.37885
       H   -10.50259   13.83378   11.88392
       O   -11.34117   14.20010   12.09593
      H1   -11.76282   13.35109   12.32833
       H   -12.07633   15.35363   10.90587
       O   -12.47194   16.06616   10.39854
      H1   -12.81732   16.63350   11.10260
       H   -12.59937   16.02600   15.30580
       O   -12.87174   15.87788   14.33403
      H1   -12.45003   15.05114   14.08686
       H    -9.82407   11.98066   10.96329
       O    -9.86843   12.39581   10.09971
      H1    -8.96302   12.74238   10.01291
       H    -5.26777   16.88810   14.82189
       O    -5.38975   17.77348   15.20883
      H1    -5.19688   18.40004   14.51359
       H    -4.33713   11.44870   11.31950
       O    -3.36689   11.41527   11.34996
      H1    -3.10287   10.79135   10.63948
       H   -10.29903   15.89663    7.70874
       O   -10.05086   15.36786    6.93902
      H1    -9.50892   15.94135    6.37369
       H    -2.47479   17.24140   10.38826
       O    -1.83163   16.85567    9.76106
      H1    -2.36301   16.25001    9.31317
       H    -7.55686   16.33721   16.98865
       O    -6.66575   16.33576   17.32823
      H1    -6.11639   16.91519   16.81227
       H    -3.23675   16.85048   13.04125
       O    -2.56862   17.31748   12.50100
      H1    -1.80770   16.75721   12.55988
       H    -6.21032   19.68700   12.10434
       O    -6.58077   19.56714   11.20270
      H1    -5.75684   19.74172   10.69432
       H   -11.34309   18.25510    6.86081
       O   -10.84257   19.09221    6.92164
      H1   -10.88259   19.58225    7.76796
       H    -5.45440   15.38039   13.73692
       O    -4.55103   15.47842   14.14985
      H1    -4.52450   14.73320   14.80537
       H    -9.13730   17.05665   12.04869
       O    -9.61700   16.85581   12.89880
      H1   -10.57494   17.05842   12.74462
       H    -8.75239   17.95210   13.97231
       O    -8.29631   18.46821   14.63419
      H1    -7.36291   18.38036   14.50793
       H    -7.33424   12.94743    8.71907
       O    -7.14727   13.06447    9.67642
      H1    -6.98881   12.13302   10.03116
       H    -4.33623   18.30270    9.28929
       O    -4.19019   19.25926    9.37512
      H1    -3.74039   19.49648    8.53835
       H    -4.85311   15.13257    8.56953
       O    -5.69731   15.64076    8.74953
      H1    -6.39019   15.04922    9.03728
       H    -5.74464   17.03530    5.72303
       O    -5.64510   16.09277    6.00867
      H1    -5.85262   16.09102    6.94398

