90
frame 11 | Written by MDAnalysis XYZWriter (release 2.4.3)
       H    -7.26626   -9.73762    3.91724
       O    -6.63633   -9.53459    4.61060
      H1    -7.04906   -8.79855    5.10936
       H    -1.25267   -8.44079    0.49278
       O    -2.10962   -8.76844    0.81848
      H1    -2.12087   -8.53830    1.78923
       H    -3.83259   -6.22426    0.04782
       O    -4.13010   -7.13548    0.09761
      H1    -3.31176   -7.74616    0.23621
       H    -6.67884  -10.62094    0.43964
       O    -6.32785  -11.45836    0.32915
      H1    -6.45348  -11.68433   -0.64814
       H    -7.01748   -4.79899    5.08763
       O    -7.21128   -4.38764    4.25483
      H1    -6.48864   -3.83989    3.99257
       H    -0.24273   -4.92142    1.49387
       O     0.08655   -4.15766    0.96772
      H1     1.02766   -4.02828    1.14021
       H    -8.72993   -8.82720    1.85553
       O    -8.02626   -9.41209    2.10611
      H1    -7.23911   -8.85210    1.97379
       H    -5.14898  -10.06622    3.85510
       O    -4.34362  -10.62892    3.69724
      H1    -3.64058  -10.31091    4.25430
       H    -5.15553   -7.74276    3.74260
       O    -4.67312   -7.14025    4.36282
      H1    -4.52160   -6.42302    3.77194
       H    -7.17768   -7.31274   -0.92860
       O    -7.62167   -6.59166   -0.46720
      H1    -7.10717   -6.38405    0.29313
       H    -4.18918  -12.32226    2.41751
       O    -4.00489  -13.26132    2.33051
      H1    -4.35248  -13.46993    1.45815
       H     1.16252   -7.89605    0.12228
       O     0.48118   -8.52066   -0.04901
      H1     0.99583   -9.36910   -0.12491
       H    -9.64077  -10.91079    5.35911
       O    -9.65699  -10.13815    4.70430
      H1    -8.89052  -10.17281    4.15362
       H    -2.01452   -8.51133    5.27676
       O    -1.98634   -8.60175    6.20763
      H1    -1.54965   -9.40950    6.41474
       H    -5.69831   -7.28441   -2.30825
       O    -5.66318   -8.06475   -1.71129
      H1    -5.00745   -7.76765   -1.02484
       H    -2.45123   -4.52721    0.02656
       O    -3.06264   -4.27635    0.70611
      H1    -3.23282   -3.32174    0.59004
       H    -1.33153  -10.49523    1.12367
       O    -0.79124  -11.25324    1.29624
      H1    -1.35093  -11.99684    0.88983
       H    -3.93271   -9.14010    6.89402
       O    -4.81592   -9.54726    6.98992
      H1    -4.99939  -10.06883    6.19543
       H    -5.99932   -4.90037    1.86672
       O    -6.94294   -5.04903    1.66788
      H1    -7.18440   -4.97110    2.60555
       H    -4.35039  -11.43430    0.01423
       O    -3.44878  -11.59438   -0.22120
      H1    -3.41241  -12.56199   -0.32075
       H    -0.77593   -3.86602    4.38547
       O    -1.28711   -4.69249    4.44436
      H1    -2.19745   -4.44004    4.61998
       H    -1.48807   -7.70333    3.29681
       O    -2.15517   -8.39460    3.44496
      H1    -2.94213   -7.84027    3.52926
       H    -4.90015   -4.77566    6.48548
       O    -5.75770   -5.31551    6.49765
      H1    -5.42236   -6.14690    6.19838
       H    -8.44855   -4.70966   -2.70874
       O    -7.88267   -4.41041   -2.00612
      H1    -7.77509   -5.15824   -1.38951
       H    -4.80196   -9.35467    2.23118
       O    -5.26482   -8.51260    2.07139
      H1    -4.75564   -8.11155    1.37081
       H    -0.38292   -5.96670    3.50627
       O    -0.32118   -6.47871    2.68541
      H1     0.52683   -6.95114    2.66520
       H    -4.80838   -9.57433   -3.14916
       O    -4.31444  -10.07068   -3.82818
      H1    -3.44794  -10.27653   -3.46926
       H    -2.38685  -10.93839   -1.74704
       O    -1.92794  -10.61735   -2.54025
      H1    -1.43703   -9.83247   -2.23106
       H    -6.00452   -4.80947   -2.48662
       O    -5.13530   -5.09201   -2.80070
      H1    -4.48699   -4.35356   -2.65083
       H    -3.77534   -4.74659    2.34726
       O    -4.54399   -4.72745    2.93238
      H1    -4.58682   -3.83658    3.31265

