90
frame 10 | Written by MDAnalysis XYZWriter (release 2.4.3)
       H    -2.86918   10.51408    9.33595
       O    -2.30402   10.73327    8.59034
      H1    -2.49273   11.69523    8.52760
       H    -2.22606   13.16597    2.61038
       O    -2.08233   14.10652    2.66836
      H1    -2.93268   14.52987    2.57714
       H    -7.32794   14.33632    7.09368
       O    -7.19593   15.20758    6.68811
      H1    -7.92791   15.65200    7.18967
       H    -3.38015   16.36990    7.58523
       O    -2.82723   16.04387    8.37651
      H1    -2.41327   15.20780    8.09375
       H     0.64981    9.05557    6.27567
       O     1.59780    8.96478    6.21510
      H1     1.90731    9.87142    6.38297
       H     1.73518   15.14225    7.01510
       O     2.18564   15.87600    7.38375
      H1     2.00645   16.64341    6.87279
       H    -0.98302   17.60210    4.14660
       O    -0.51542   17.03580    4.79325
      H1     0.32179   17.51164    5.02395
       H     3.37365   11.92869    6.27356
       O     2.70972   11.42960    6.78137
      H1     3.06827   11.43866    7.66937
       H     0.19022    9.35040   11.00196
       O    -0.31385   10.18095   11.13556
      H1    -0.69950   10.45413   10.31428
       H     0.44033   13.77866    6.05687
       O     0.75208   13.52533    6.95699
      H1     1.33167   12.78635    6.85203
       H    -0.27315   14.27826    3.86339
       O     0.35858   14.58629    4.51431
      H1     0.01341   15.52630    4.72580
       H    -5.42865   14.12269    2.19774
       O    -4.86352   14.77680    1.77300
      H1    -5.31783   15.60047    1.70292
       H    -5.52108   12.06524    3.58679
       O    -6.15539   12.35134    2.87124
      H1    -6.98082   11.93113    3.14092
       H    -1.41853   15.06514    1.43664
       O    -0.96047   15.63226    0.79014
      H1    -1.69501   16.12666    0.34198
       H    -0.74670   16.02514   11.19393
       O    -0.56238   15.53185   10.34716
      H1    -1.16945   15.89459    9.72737
       H    -2.29284   13.63562    6.68043
       O    -1.94132   13.53282    7.57135
      H1    -0.95567   13.47810    7.53149
       H     1.06785   14.11143   10.73069
       O     1.93697   14.03077   11.11835
      H1     2.25816   13.14647   10.96742
       H    -1.82339   10.98510    4.16917
       O    -1.69220   11.35225    3.26773
      H1    -1.95256   10.69651    2.57746
       H    -5.14760    9.05474    7.44041
       O    -5.96005    9.06091    7.91832
      H1    -6.66292    8.66983    7.38843
       H    -4.21934   15.78919   10.07473
       O    -4.63863   16.07766   10.87028
      H1    -5.20567   16.84001   10.53559
       H    -2.40483   10.75491    6.87741
       O    -2.46379   10.63233    5.96240
      H1    -3.15614   11.28601    5.66883
       H     0.79874    9.94231    4.18612
       O     0.71104   10.91509    4.16218
      H1    -0.21059   11.05860    3.87786
       H    -1.17919   17.69040    6.48736
       O    -1.71788   18.12556    7.15782
      H1    -2.00757   17.47798    7.81176
       H    -6.14796   11.97079    9.62249
       O    -5.53647   11.57464   10.22287
      H1    -5.31525   10.65104    9.96464
       H    -6.51235   14.29774   10.81583
       O    -7.08692   14.26191   10.02524
      H1    -7.89574   14.75149   10.28727
       H    -4.64334   17.09056    5.35230
       O    -4.53442   16.41769    6.07425
      H1    -5.35390   16.10194    6.38870
       H    -6.66677   10.72214    7.33685
       O    -6.53215   11.59153    6.86485
      H1    -7.39186   11.98675    6.63300
       H    -3.41251   15.31816    5.26289
       O    -3.06157   14.39875    5.18684
      H1    -2.50955   14.37542    4.44180
       H    -3.12795    7.93892    7.64397
       O    -3.21010    8.16472    6.66639
      H1    -2.78387    9.02297    6.56145
       H    -4.12274   13.04099    5.02986
       O    -4.44439   12.16962    4.84993
      H1    -5.06861   12.01192    5.60250

