90
frame 10 | Written by MDAnalysis XYZWriter (release 2.4.3)
       H    -1.83038    2.17601    1.52820
       O    -1.76452    3.08492    1.15270
      H1    -1.88245    3.02852    0.22213
       H    -1.16793    6.10876    5.36678
       O    -0.48029    6.51242    5.86750
      H1     0.27048    5.90458    5.73582
       H    -6.10582   -1.13956    6.29765
       O    -5.28366   -1.11593    5.74894
      H1    -4.65152   -0.71455    6.31508
       H    -9.50012    4.15402    5.25881
       O    -9.07652    4.36223    4.37723
      H1    -8.30300    3.79086    4.19718
       H    -6.77040    4.78818    1.83696
       O    -6.78144    4.71108    0.88460
      H1    -7.64709    4.31566    0.64061
       H    -1.60057    3.07080    9.69547
       O    -1.88175    3.15424    8.74403
      H1    -2.81788    3.04323    8.78452
       H    -4.77747    6.56343    1.38981
       O    -4.19063    5.81662    1.68431
      H1    -3.64952    6.33534    2.29829
       H    -2.37366    2.59756    4.75124
       O    -3.21291    3.03036    5.01376
      H1    -3.75978    2.68124    4.30777
       H    -2.05535    6.45382    1.05088
       O    -1.41931    6.00751    0.50452
      H1    -1.50696    5.10316    0.89946
       H    -5.27989    2.11893    2.19323
       O    -5.40841    1.92914    3.11207
      H1    -6.22763    1.33733    3.14124
       H    -5.03464   -2.02786    4.00766
       O    -5.41444   -2.58106    3.29307
      H1    -6.28530   -2.21525    3.08194
       H    -6.04843    0.81145    5.70742
       O    -6.77529    1.26920    6.19066
      H1    -6.49596    2.15388    6.09519
       H    -2.68550    4.75404    4.67172
       O    -2.53401    5.68186    4.37749
      H1    -3.18134    6.14094    5.01337
       H    -1.85699    4.80673    8.28125
       O    -1.93253    5.78875    8.24433
      H1    -1.37798    6.11491    7.48894
       H    -4.63528    7.60026    6.02296
       O    -5.47307    7.36009    5.60698
      H1    -6.09480    7.48298    6.35274
       H    -5.42398    3.72462    8.82034
       O    -5.98423    4.54191    8.69333
      H1    -5.90892    4.69007    7.74625
       H     1.16503   -0.70398    6.56082
       O     0.31941   -0.74300    6.12900
      H1     0.19281    0.09660    5.72291
       H    -8.21825    0.67866    4.51569
       O    -8.10653    0.57535    3.51803
      H1    -8.86094    1.03518    3.10961
       H    -3.76582    0.99096    7.95244
       O    -3.83707    0.08416    7.66770
      H1    -4.07947   -0.44033    8.45102
       H    -2.42178   -2.60847    6.47842
       O    -3.11028   -2.75470    5.89348
      H1    -3.78668   -2.07691    5.91307
       H    -0.35147    2.23305    7.84546
       O     0.47418    2.25271    7.32011
      H1     0.62185    3.17273    7.10028
       H    -7.17819   -0.06609    7.20976
       O    -7.34354   -0.87239    7.73917
      H1    -8.17116   -1.24609    7.41732
       H    -0.73428   -0.20226    1.74866
       O    -1.42639    0.29749    2.29336
      H1    -1.15854    0.44717    3.20923
       H    -5.43347    3.75034    0.43127
       O    -4.76414    3.07056    0.42320
      H1    -3.90426    3.45657    0.62976
       H    -0.31616    1.65758    5.81787
       O    -0.25913    1.53449    4.87688
      H1     0.68619    1.81136    4.69300
       H    -6.08602    4.13246    5.35740
       O    -5.77772    3.76151    6.16693
      H1    -4.85873    3.75127    5.90598
       H    -3.98220   -2.27644    1.57385
       O    -4.01872   -2.50212    0.66693
      H1    -4.74026   -2.12561    0.18289
       H    -5.13539    5.53967    3.23222
       O    -5.86667    5.29096    3.86183
      H1    -5.69362    5.93291    4.51550
       H    -4.41568    2.62483   10.33124
       O    -4.59059    2.39498    9.37652
      H1    -5.05020    1.56456    9.28321
       H    -4.99159    1.54409   -2.22308
       O    -4.64248    1.20955   -1.43606
      H1    -4.73947    1.91904   -0.75713

