90
frame 11 | Written by MDAnalysis XYZWriter (release 2.4.3)
       H   -17.13499    7.41757    8.99921
       O   -16.64614    7.75652    9.79434
      H1   -17.23713    7.47377   10.53042
       H   -16.23416    5.20625   19.17130
       O   -15.37990    5.78575   19.24632
      H1   -15.17322    6.17446   18.37034
       H   -19.69584    4.97920   11.31380
       O   -18.73966    4.77559   11.33400
      H1   -18.70850    3.95515   11.83936
       H   -13.51961   10.63280   11.70597
       O   -14.24877   10.25902   12.20138
      H1   -15.07657   10.65691   11.94005
       H   -19.51448   11.31444    9.67173
       O   -18.60266   11.24793    9.44004
      H1   -18.01707   11.51867   10.14864
       H   -13.60049   11.97797   16.74658
       O   -13.85955   12.47171   15.93348
      H1   -13.03687   12.52024   15.38547
       H   -15.10610    7.30225   10.93285
       O   -14.47649    7.64962   11.57386
      H1   -14.77867    8.48409   11.89593
       H   -15.66062   13.36729   15.03029
       O   -16.29879   13.93770   14.58478
      H1   -16.98501   14.04674   15.23487
       H   -15.93524   10.89925    9.31061
       O   -15.49414   10.15850    8.83603
      H1   -15.84156    9.32327    9.12468
       H   -15.51875    2.48662   13.44602
       O   -16.02277    3.01241   14.07775
      H1   -15.71452    3.94824   13.93054
       H   -19.54657    3.14095   13.90099
       O   -19.03895    2.81864   13.15724
      H1   -18.12562    2.83395   13.34148
       H   -17.51624    6.24163   16.46959
       O   -16.54892    6.23626   16.57889
      H1   -16.26896    6.32208   15.67796
       H   -16.06241    7.85466   17.82213
       O   -15.82052    8.68644   18.24871
      H1   -15.81930    9.37643   17.51885
       H   -13.17047    7.55563   15.53490
       O   -13.16464    7.30095   14.59040
      H1   -13.10396    6.35554   14.57740
       H   -16.74533   10.36847   14.56721
       O   -17.58180   10.83641   14.59340
      H1   -17.64723   11.25642   15.46565
       H   -14.50505   10.48453   15.17065
       O   -14.93619    9.61472   15.30788
      H1   -14.39708    9.06178   14.70319
       H   -17.43850    9.06827   18.82315
       O   -18.35895    9.03792   19.17439
      H1   -18.98413    9.20748   18.47112
       H   -16.27431   12.45138   11.78401
       O   -16.80790   11.61471   11.86072
      H1   -17.21895   11.76149   12.75146
       H   -13.63955    4.31150   15.85144
       O   -12.71751    4.44548   15.50003
      H1   -12.16713    4.58288   16.23732
       H   -12.99360    9.83474   17.93514
       O   -12.62325   10.70956   17.80264
      H1   -11.85007   10.47662   17.18427
       H   -16.39215    6.15040   13.21542
       O   -15.63965    5.77623   13.74373
      H1   -14.95350    6.45690   13.65193
       H   -19.22250    7.79655   15.17964
       O   -18.51173    8.15123   14.59592
      H1   -18.44764    9.11673   14.66883
       H   -18.21925    6.39505   12.03226
       O   -17.71566    7.26126   12.27028
      H1   -17.95020    7.70463   13.08918
       H   -18.28492    3.73905    8.37201
       O   -17.53358    4.31784    8.64093
      H1   -17.76461    4.50025    9.53715
       H   -17.09882   12.67447   17.48150
       O   -17.84072   12.25453   17.04276
      H1   -18.40238   12.99411   16.71381
       H   -12.98701    8.06440   11.27103
       O   -12.12600    8.43855   10.96296
      H1   -11.34318    8.05761   11.40413
       H   -15.96988    4.59586   16.67319
       O   -15.30118    3.81286   16.50022
      H1   -15.55109    3.39762   15.61101
       H   -19.03594    9.63661   10.54661
       O   -19.38610    9.16855   11.28363
      H1   -18.60404    8.65821   11.58281
       H   -17.97830    5.28713   20.02993
       O   -17.74274    4.79731   19.22320
      H1   -18.45356    5.10464   18.61733
       H   -19.05083   14.35723   10.96648
       O   -19.58942   14.10474   10.25688
      H1   -20.14478   13.49588   10.72219

