90
frame 0 | Written by MDAnalysis XYZWriter (release 2.4.3)
       H    -1.80891    4.52320    4.80939
       O    -2.16440    5.14259    4.17041
      H1    -2.80600    5.59005    4.64982
       H     0.85767    5.48801    6.36914
       O     1.21855    4.65148    6.08417
      H1     1.31983    4.75061    5.12014
       H    -4.07670    7.92914   10.38081
       O    -3.27594    8.03196    9.81813
      H1    -3.12199    9.01161    9.81924
       H     4.81776    4.40822    9.91234
       O     4.81484    4.76261    8.99999
      H1     4.07924    4.21477    8.61856
       H     3.16644    7.99045   10.10936
       O     3.49649    8.69827   10.69629
      H1     3.19692    8.30524   11.53473
       H    -2.40860    4.58384    8.75785
       O    -2.99980    4.05380    8.16920
      H1    -3.79485    4.63956    8.11987
       H    -4.33504    8.86820    7.00863
       O    -5.31376    8.99034    7.07759
      H1    -5.61888    8.11260    7.29665
       H    -0.72569   11.07226    5.05557
       O    -0.95826   10.22485    4.60140
      H1    -0.91783   10.48801    3.69832
       H    -0.12356   12.05045    8.30511
       O    -0.70556   11.93038    9.10796
      H1     0.04532   11.63632    9.59393
       H    -0.44399    3.50829    9.53550
       O     0.06311    3.01400    8.90483
      H1     0.93160    3.38526    8.74965
       H    -5.32870    5.79560    8.13517
       O    -4.62678    6.21747    7.61476
      H1    -4.11777    6.74666    8.19578
       H     3.77952    2.98507    6.79850
       O     3.09963    3.05729    7.46971
      H1     2.37459    3.47480    7.03901
       H     0.60441    5.13057   11.30430
       O     1.48856    5.02458   11.73245
      H1     1.52727    4.16658   12.13307
       H    -0.02868   12.92812    5.85303
       O    -0.63054   12.19764    6.23050
      H1    -1.35098   12.80634    6.45542
       H    -1.59266    8.22093   10.27321
       O    -0.68249    7.92179   10.52056
      H1    -0.42787    7.46881    9.68339
       H     2.83399   12.35863    7.78476
       O     2.01896   11.85877    7.90721
      H1     1.90678   11.59130    6.92761
       H    -1.01164   10.17799    1.10658
       O    -0.79093   10.15763    2.06089
      H1    -0.91721    9.24580    2.33841
       H    -1.33521    3.36174    6.99364
       O    -1.12681    3.47970    6.04442
      H1    -0.27542    3.91815    6.12531
       H     0.13935    7.04986    1.95552
       O    -0.76759    7.23133    2.23219
      H1    -0.80142    6.79050    3.05945
       H     3.66956    5.65165    4.64129
       O     3.33945    6.51237    4.27102
      H1     2.98173    7.01915    5.05237
       H     4.78232    7.80835    5.90806
       O     5.05070    8.75426    5.87055
      H1     5.39598    8.97950    6.74451
       H     0.46784    7.51666    7.24084
       O    -0.24582    6.88295    7.19363
      H1    -1.00147    7.44466    6.93014
       H     4.81845    7.87306    8.24925
       O     3.92503    7.53562    8.06844
      H1     4.18412    6.59819    7.98975
       H    -2.35301   11.25207    9.14397
       O    -3.05279   10.62016    9.01248
      H1    -3.73893   11.18398    8.69530
       H    -2.27997    5.09027   10.88980
       O    -1.46685    5.34885   10.46069
      H1    -1.43624    6.32860   10.59150
       H    -2.32473    9.43716    7.49810
       O    -2.26588    8.81224    6.81199
      H1    -1.66781    9.29743    6.14571
       H     2.66960    8.21035    6.80550
       O     2.18702    7.96482    6.03285
      H1     2.07014    8.90828    5.66168
       H     3.36856   10.66283    5.13090
       O     2.42278   10.87073    5.02927
      H1     2.36626   11.16115    4.07782
       H    -4.01659   11.04998    4.13611
       O    -3.86635   10.31613    3.54913
      H1    -2.97012    9.98930    3.72760
       H     2.47854   10.25051   10.29713
       O     1.99684   11.08568   10.45924
      H1     2.19362   11.43457    9.59874

